
 + + + + + + + + + + + + + + + + + + + + + + + + + + + + + + + + + + + + + + + +
 + + + + + + + + + + + + + + + + + + + + + + + + + + + + + + + + + + + + + + + +
 + +                                                                         + +
 + +                      ASPEN PLUS CALCULATION HISTORY                     + +
 + +                                                                         + +
 + + + + + + + + + + + + + + + + + + + + + + + + + + + + + + + + + + + + + + + +
 + + + + + + + + + + + + + + + + + + + + + + + + + + + + + + + + + + + + + + + +

 ASPEN PLUS IS A TRADEMARK OF           HOTLINE:
 ASPEN TECHNOLOGY, INC.                 U.S.A. 888/996-7100
 781/221-6400                           EUROPE (44) 1189-226555

 PLATFORM: WIN-X64                                       APRIL 11, 2025      
 VERSION: 40.0   Build 359                               FRIDAY      
 INSTALLATION:                                           2:48:16 P.M.        

 THIS COPY OF ASPEN PLUS LICENSED TO INDIAN INSTITUTE OF TECH        


      ASPEN PLUS (R) IS A PROPRIETARY PRODUCT OF ASPEN TECHNOLOGY, INC.
      (ASPENTECH), AND MAY BE USED ONLY UNDER AGREEMENT WITH ASPENTECH.
      RESTRICTED RIGHTS LEGEND:  USE, REPRODUCTION, OR DISCLOSURE BY THE
      U.S. GOVERNMENT IS SUBJECT TO RESTRICTIONS SET FORTH IN 
      (i) FAR 52.227-14, Alt. III, (ii) FAR 52.227-19, (iii) DFARS 
      252.227-7013(c)(1)(ii), or (iv) THE ACCOMPANYING LICENSE AGREEMENT,
      AS APPLICABLE. FOR PURPOSES OF THE FAR, THIS SOFTWARE SHALL BE DEEMED
      TO BE "UNPUBLISHED" AND LICENSED WITH DISCLOSURE PROHIBITIONS.
      CONTRACTOR/SUBCONTRACTOR: ASPEN TECHNOLOGY, INC. 20 CROSBY DRIVE,
      BEDFORD, MA 01730.
 *** INPUT SUMMARY ***

 >>CURRENT RUN

   ORIGINAL RUN                           APRIL 11, 2025      
   2:48:16 P.M.                           FRIDAY      
   INPUT FILE: _4716ynv.inm
   RUN ID : _4716ynv
          1    ;
          2    ;Input file created by Aspen Plus Rel. 40.0 at 14:48:15 Fri Apr 11, 2025
          3    ;Directory   Runid 221036_LAB9
          4    ;
          5
          6
          7    DYNAMICS
          8        DYNAMICS RESULTS=ON
          9
         10    IN-UNITS SI MOLE-FLOW='kmol/hr' ENTHALPY-FLO=kW PRESSURE=bar  &
         11            PDROP=bar SHORT-LENGTH=mm
         12
         13    DEF-STREAMS CONVEN ALL
         14
         15    MODEL-OPTION
         16
         17    DATABANKS 'APV140 PURE40' / 'APV140 AQUEOUS' / 'APV140 SOLIDS' &
         18             / 'APV140 INORGANIC' / 'APESV140 AP-EOS' /  &
         19            'NISTV140 NIST-TRC' / NOASPENPCD
         20
         21    PROP-SOURCES 'APV140 PURE40' / 'APV140 AQUEOUS' /  &
         22            'APV140 SOLIDS' / 'APV140 INORGANIC' / 'APESV140 AP-EOS' &
         23             / 'NISTV140 NIST-TRC'
         24
         25    COMPONENTS
         26        ETHANE C2H6 /
         27        ETHYLENE C2H4 /
         28        BENZENE C6H6 /
         29        EB C8H10-4 /
         30        DEB C10H14-8
         31
         32    SOLVE
         33        RUN-MODE MODE=SIM
         34
         35    FLOWSHEET
         36        BLOCK B8 IN=OUT OUT=11
         37        BLOCK R2 IN=6 22 OUT=OUT
         38        BLOCK B6 IN=5 OUT=6
         39        BLOCK B5 IN=CSTROUT OUT=5
         40        BLOCK B4 IN=FF OUT=ETHYL
         41        BLOCK R1 IN=ETHYL TOTAL OUT=CSTROUT
         42        BLOCK C1 IN=11 OUT=C1D C1B
         43        BLOCK B7 IN=C1D OUT=8
         44        BLOCK B9 IN=C1B OUT=9
         45        BLOCK C2 IN=9 OUT=C2D C2B
         46        BLOCK B11 IN=C2D OUT=12
         47        BLOCK B12 IN=12 OUT=RECYCLE
         48        BLOCK B13 IN=15 OUT=16
         49        BLOCK B14 IN=C2B OUT=15
         50        BLOCK B19 IN=21 OUT=22
         51        BLOCK B18 IN=18 OUT=19
         52        BLOCK B17 IN=C3B OUT=21
         53        BLOCK B16 IN=C3D OUT=18
         54        BLOCK C3 IN=16 OUT=C3D C3B
         55        BLOCK B1 IN=RECYCLE FB OUT=TOTAL PURGE
         56
         57    PROPERTIES CHAO-SEA
         58
         59    STREAM FB
         60        SUBSTREAM MIXED TEMP=298.1500000 PRES=1. MOLE-FLOW=100.
         61        MOLE-FRAC BENZENE 1.
         62
         63    STREAM FF
         64        SUBSTREAM MIXED TEMP=298.1500000 PRES=25. MOLE-FLOW=105.25
         65        MOLE-FRAC ETHANE 0.05 / ETHYLENE 0.95
         66
         67    STREAM TOTAL
         68        SUBSTREAM MIXED TEMP=319.32781777 PRES=20. MOLE-FLOW=139.42
         69        MOLE-FRAC ETHANE 2.4472464E-09 / ETHYLENE 0. / BENZENE  &
         70            135.5581213 / EB 0.35918293481 / DEB 1.1819759E-06
         71
         72    BLOCK C1 RADFRAC
         73        PARAM NSTAGE=11 ALGORITHM=NEWTON MAXOL=200 DAMPING=MILD
         74        COL-CONFIG CONDENSER=PARTIAL-V
         75        FEEDS 11 5 ON-STAGE
         76        PRODUCTS C1D 1 V / C1B 11 L
         77        P-SPEC 1 8.
         78        COL-SPECS DP-STAGE=0.01 MOLE-D=5.35 MOLE-RR=0.9
         79        SPEC 1 TEMP 321.15 STAGE=1  &
         80            SPEC-DESCRIP="Stage temperature, 321.15, 1"
         81        VARY 1 MOLE-D 1. 20.
         82
         83    BLOCK C2 RADFRAC
         84        PARAM NSTAGE=24 ALGORITHM=NEWTON INIT-OPTION=AZEOTROPIC  &
         85            MAXOL=200 DAMPING=MILD
         86        COL-CONFIG CONDENSER=TOTAL
         87        FEEDS 9 8 ON-STAGE
         88        PRODUCTS C2D 1 L / C2B 24 L
         89        P-SPEC 1 1.1
         90        COL-SPECS QN=951.684 DP-STAGE=0.01 MOLE-RR=1.34
         91        SPEC 1 MOLE-FRAC 0.99 COMPS=BENZENE STREAMS=C2D  &
         92            SPEC-ACTIVE=YES SPEC-DESCRIP="Mole purity, 0.99, PRODUCT"
         93        SPEC 2 MOLE-FRAC 0.0004 COMPS=BENZENE STREAMS=C2B  &
         94            SPEC-ACTIVE=YES SPEC-DESCRIP="Mole purity, 0.0004, PRODUCT"
         95        VARY 1 MOLE-RR 0.1 15. VARY-ACTIVE=YES
         96        VARY 2 QN 100. 10000000. VARY-ACTIVE=YES
         97
         98    BLOCK C3 RADFRAC
         99        PARAM NSTAGE=29 ALGORITHM=NEWTON INIT-OPTION=AZEOTROPIC  &
        100            MAXOL=200 DAMPING=MILD
        101        PARAM2
        102        COL-CONFIG CONDENSER=TOTAL
        103        FEEDS 16 6 ON-STAGE
        104        PRODUCTS C3D 1 L / C3B 29 L
        105        P-SPEC 1 1.1
        106        COL-SPECS D:F=0.945227124 DP-STAGE=0.01 MOLE-RR=0.9
        107        SPEC 2 MOLE-FRAC 0.999 COMPS=EB STREAMS=C3D  &
        108            SPEC-ACTIVE=YES SPEC-DESCRIP="Mole purity, 0.999, PRODUCT"
        109        VARY 2 MOLE-RR 0.1 5. VARY-ACTIVE=YES
        110
        111    BLOCK R1 RCSTR
        112        PARAM VOL=200. TEMP=423.1500000 PRES=20. NPHASE=1 PHASE=L
        113        BLOCK-OPTION FREE-WATER=NO
        114        REACTIONS RXN-IDS=R-1
        115        PARAM-MSSTR VAPOR-INLET=NO
        116
        117    BLOCK R2 RCSTR
        118        PARAM VOL=200. TEMP=423.1500000 PRES=20. NPHASE=1 PHASE=L
        119        BLOCK-OPTION FREE-WATER=NO
        120        REACTIONS RXN-IDS=R-1
        121        PARAM-MSSTR VAPOR-INLET=NO
        122
        123    BLOCK B5 PUMP
        124        PARAM DELP=10.
        125
        126    BLOCK B11 PUMP
        127        PARAM DELP=25.
        128
        129    BLOCK B14 PUMP
        130        PARAM DELP=10.
        131
        132    BLOCK B16 PUMP
        133        PARAM DELP=10.
        134
        135    BLOCK B17 PUMP
        136        PARAM DELP=25.
        137
        138    BLOCK B1 MAKEUP
        139        PARAM OUTMLFL=190. NPHASE=2 MAXIT=30 TOL=0.0001
        140        BOUND FB
        141
        142    BLOCK B4 VALVE
        143        PARAM P-OUT=20.
        144
        145    BLOCK B6 VALVE
        146        PARAM P-OUT=20.
        147
        148    BLOCK B7 VALVE
        149        PARAM P-OUT=3.
        150
        151    BLOCK B8 VALVE
        152        PARAM P-DROP=5.
        153
        154    BLOCK B9 VALVE
        155        PARAM P-OUT=3.
        156
        157    BLOCK B12 VALVE
        158        PARAM P-OUT=20.
        159
        160    BLOCK B13 VALVE
        161        PARAM P-OUT=2.5
        162
        163    BLOCK B18 VALVE
        164        PARAM P-DROP=8.
        165
        166    BLOCK B19 VALVE
        167        PARAM P-OUT=20.
        168
        169    EO-CONV-OPTI
        170
        171    CALCULATOR C-1
        172        DEFINE A STREAM-VAR STREAM=FB SUBSTREAM=MIXED  &
        173            VARIABLE=MOLE-FLOW UOM="kmol/hr"
        174        DEFINE B STREAM-VAR STREAM=RECYCLE SUBSTREAM=MIXED  &
        175            VARIABLE=MOLE-FLOW UOM="kmol/hr"
        176        DEFINE C STREAM-VAR STREAM=TOTAL SUBSTREAM=MIXED  &
        177            VARIABLE=MOLE-FLOW UOM="kmol/hr"
        178    F     A = C - B
        179        READ-VARS B C
        180        WRITE-VARS A
        181
        182    SENSITIVITY S-1
        183        DEFINE Q1 BLOCK-VAR BLOCK=C1 VARIABLE=REB-DUTY  &
        184            SENTENCE=RESULTS UOM="kW"
        185        DEFINE Q2 BLOCK-VAR BLOCK=C2 VARIABLE=REB-DUTY  &
        186            SENTENCE=RESULTS UOM="kW"
        187        DEFINE Q3 BLOCK-VAR BLOCK=C3 VARIABLE=REB-DUTY  &
        188            SENTENCE=RESULTS UOM="kW"
        189        TABULATE 1 "Q1"
        190        TABULATE 2 "Q2"
        191        TABULATE 3 "Q3"
        192        TABULATE 4 "Q1+Q2+Q3"
        193        VARY BLOCK-VAR BLOCK=B1 VARIABLE=OUTMLFL SENTENCE=PARAM UOM= &
        194            "kmol/hr"
        195        RANGE OPT-LIST=RANGE LOWER="139" UPPER="250" NPOINT="32"
        196
        197    SENSITIVITY S-2
        198        DEFINE Q1 BLOCK-VAR BLOCK=C1 VARIABLE=REB-DUTY  &
        199            SENTENCE=RESULTS UOM="kW"
        200        DEFINE Q2 BLOCK-VAR BLOCK=C2 VARIABLE=REB-DUTY  &
        201            SENTENCE=RESULTS UOM="kW"
        202        DEFINE Q3 BLOCK-VAR BLOCK=C3 VARIABLE=REB-DUTY  &
        203            SENTENCE=RESULTS UOM="kW"
        204        TABULATE 1 "Q1"
        205        TABULATE 2 "Q2"
        206        TABULATE 3 "Q3"
        207        TABULATE 4 "Q1 + Q2 + Q3"
        208        VARY BLOCK-VAR BLOCK=C2 VARIABLE=MOLE-RR SENTENCE=COL-SPECS
        209        RANGE OPT-LIST=RANGE LOWER="1.15" UPPER="2.3" NPOINT="13"
        210
        211    SENSITIVITY S-3
        212        DEFINE Q1 BLOCK-VAR BLOCK=C1 VARIABLE=REB-DUTY  &
        213            SENTENCE=RESULTS UOM="kW"
        214        DEFINE Q2 BLOCK-VAR BLOCK=C2 VARIABLE=REB-DUTY  &
        215            SENTENCE=RESULTS UOM="kW"
        216        DEFINE Q3 BLOCK-VAR BLOCK=C3 VARIABLE=REB-DUTY  &
        217            SENTENCE=RESULTS UOM="kW"
        218        TABULATE 1 "Q1"
        219        TABULATE 2 "Q2"
        220        TABULATE 3 "Q3"
        221        TABULATE 4 "Q1+Q2+Q3"
        222        VARY BLOCK-VAR BLOCK=C2 VARIABLE=QN SENTENCE=COL-SPECS UOM= &
        223            "kW"
        224        RANGE OPT-LIST=RANGE LOWER="970" UPPER="941" NPOINT="20"
        225
        226    SENSITIVITY S-4
        227        DEFINE Q1 BLOCK-VAR BLOCK=C1 VARIABLE=REB-DUTY  &
        228            SENTENCE=RESULTS UOM="kW"
        229        DEFINE Q2 BLOCK-VAR BLOCK=C2 VARIABLE=REB-DUTY  &
        230            SENTENCE=RESULTS UOM="kW"
        231        DEFINE Q3 BLOCK-VAR BLOCK=C3 VARIABLE=REB-DUTY  &
        232            SENTENCE=RESULTS UOM="kW"
        233        TABULATE 1 "Q1"
        234        TABULATE 2 "Q2"
        235        TABULATE 3 "Q3"
        236        TABULATE 4 "Q1+Q2+Q3"
        237        VARY BLOCK-VAR BLOCK=C3 VARIABLE=D:F SENTENCE=COL-SPECS
        238        RANGE OPT-LIST=RANGE LOWER="0.88" UPPER="0.94"  &
        239            INCR="-0.010000"
        240
        241    STREAM-REPOR MOLEFLOW MOLEFRAC
        242
        243    REACTIONS R-1 POWERLAW
        244        REAC-DATA 1
        245        REAC-DATA 2
        246        REAC-DATA 3
        247        RATE-CON 1 PRE-EXP=1528000. ACT-ENERGY=7.11756000E+7
        248        RATE-CON 2 PRE-EXP=27780000. ACT-ENERGY=8.37360000E+7
        249        RATE-CON 3 PRE-EXP=1000. ACT-ENERGY=6.28020000E+7
        250        STOIC 1 MIXED BENZENE -1. / ETHYLENE -1. / EB 1.
        251        STOIC 2 MIXED EB -1. / ETHYLENE -1. / DEB 1.
        252        STOIC 3 MIXED DEB -1. / BENZENE -1. / EB 2.
        253        POWLAW-EXP 1 MIXED BENZENE 1. / MIXED ETHYLENE 1.
        254        POWLAW-EXP 2 MIXED EB 1. / MIXED ETHYLENE 1.
        255        POWLAW-EXP 3 MIXED DEB 1. / MIXED BENZENE 1.
        256
        257    DISABLE
        258        SENSITIVITY S-1 S-2 S-3 S-4
        259        CALCULATOR C-1
        260    ;
        261    ;
        262    ;
        263    ;
        264    ;
 *** INPUT TRANSLATOR MESSAGES ***

  *** THIS RUN USES THE PROPERTIES ENTERPRISE DATABASE ***
      SQLLOCALDB.APESV140 : (DATAVERSION - 40.0.0.13)                         
      SQLLOCALDB.APV140 : (DATAVERSION - 40.0.0.13)                           
      SQLLOCALDB.FACTV140 : (DATAVERSION - 40.0.0.12)                         
      SQLLOCALDB.NISTV140 : (DATAVERSION - 40.0.0.12)                         

  *   WARNING IN THE "STREAM" PARAGRAPH WHICH BEGINS ON LINE 67                 
      STREAM NAME: TOTAL                                       (SDSMPR.11)      
      COMPONENT MOLE FRACTIONS ARE NORMALIZED TO UNITY.                         


 
 CALCULATOR BLOCK: C-1 WILL BE INTERPRETED 
 SENSITIVITY BLOCK: S-1 WILL BE INTERPRETED 
 SENSITIVITY BLOCK: S-2 WILL BE INTERPRETED 
 SENSITIVITY BLOCK: S-3 WILL BE INTERPRETED 
 SENSITIVITY BLOCK: S-4 WILL BE INTERPRETED 
 

 PDF updated                                                                      TIME =      2.75

 *** CALCULATION TRACE ***


 *** FLOWSHEET ANALYSIS MESSAGES ***

 FLOWSHEET CONNECTIVITY BY STREAMS       

   STREAM     SOURCE     DEST           STREAM     SOURCE     DEST
   FF         ----       B4             FB         ----       B1      
   11         B8         C1             OUT        R2         B8      
   6          B6         R2             5          B5         B6      
   ETHYL      B4         R1             CSTROUT    R1         B5      
   C1D        C1         B7             C1B        C1         B9      
   8          B7         ----           9          B9         C2      
   C2D        C2         B11            C2B        C2         B14     
   12         B11        B12            RECYCLE    B12        B1      
   16         B13        C3             15         B14        B13     
   22         B19        R2             19         B18        ----    
   21         B17        B19            18         B16        B18     
   C3D        C3         B16            C3B        C3         B17     
   TOTAL      B1         R1             PURGE      B1         ----    

 FLOWSHEET CONNECTIVITY BY BLOCKS        

   BLOCK        INLETS                         OUTLETS
   B8           OUT                            11                          
   R2           6 22                           OUT                         
   B6           5                              6                           
   B5           CSTROUT                        5                           
   B4           FF                             ETHYL                       
   R1           ETHYL TOTAL                    CSTROUT                     
   C1           11                             C1D C1B                     
   B7           C1D                            8                           
   B9           C1B                            9                           
   C2           9                              C2D C2B                     
   B11          C2D                            12                          
   B12          12                             RECYCLE                     
   B13          15                             16                          
   B14          C2B                            15                          
   B19          21                             22                          
   B18          18                             19                          
   B17          C3B                            21                          
   B16          C3D                            18                          
   C3           16                             C3D C3B                     
   B1           RECYCLE FB                     TOTAL PURGE                 

      BLOCK $OLVER01 (METHOD: WEGSTEIN) HAS BEEN DEFINED TO CONVERGE
               STREAMS: OUT

      COMPUTATION ORDER FOR THE FLOWSHEET IS:
      B4 
      $OLVER01 B8 C1 B9 C2 B11 B12 B1 R1 B5 B6 B14 B13 C3 B17 B19 R2 
      (RETURN $OLVER01) 
      B7 B16 B18 

Calculations begin                                                              time      0.29


 SIMULATION CALCULATIONS BEGIN                                                    TIME =      0.29

      ENTHALPY CALCULATION FOR INLET STREAM FF OF BLOCK B4                        TIME =      0.29
      KODE = 2  NTRIAL =   1  T = 298.1500  P = 2.500000E+06  V =  1.00000      Q =  0.00000    

      UOS BLOCK B4       MODEL: VALVE                                             TIME =      0.31
      NO. TEMP ITER =    5     TEMP =  292.469    
      KODE = 1  NTRIAL =   2  T = 292.4689  P = 2.000000E+06  V =  1.00000      Q =  0.00000    
      OUTLET PRES =   0.2000E+07 PRES DROP =   0.5000E+06

      CONVERGENCE BLOCK $OLVER01  METHOD: WEGSTEIN                                TIME =      0.32
      ITER   0 For Tear Streams: OUT

      UOS BLOCK B8       MODEL: VALVE                                             TIME =      0.32

  *   WARNING WHILE EXECUTING UNIT OPERATIONS BLOCK: "B8" (MODEL: "VALVE")      
                                                               (UVA01I.1)       
      ZERO FEED TO THE BLOCK. BLOCK BYPASSED                                    

      UOS BLOCK C1       MODEL: RADFRAC                                           TIME =      0.32

  *   WARNING WHILE EXECUTING UNIT OPERATIONS BLOCK: "C1" (MODEL: "RADFRAC")    
                                                               (UDL3II.7060)    
      ZERO FEED - BLOCK BYPASSED.                                               

      UOS BLOCK B9       MODEL: VALVE                                             TIME =      0.32

  *   WARNING WHILE EXECUTING UNIT OPERATIONS BLOCK: "B9" (MODEL: "VALVE")      
                                                               (UVA01I.1)       
      ZERO FEED TO THE BLOCK. BLOCK BYPASSED                                    

      UOS BLOCK C2       MODEL: RADFRAC                                           TIME =      0.32

  *   WARNING WHILE EXECUTING UNIT OPERATIONS BLOCK: "C2" (MODEL: "RADFRAC")    
                                                               (UDL3II.7060)    
      ZERO FEED - BLOCK BYPASSED.                                               

      UOS BLOCK B11      MODEL: PUMP                                              TIME =      0.32

  *   WARNING WHILE EXECUTING UNIT OPERATIONS BLOCK: "B11" (MODEL: "PUMP")      
                                                               (UPC01I.1)       
      MIXED SUBSTREAM HAS ZERO FLOW.  BLOCK BYPASSED.                           

      UOS BLOCK B12      MODEL: VALVE                                             TIME =      0.32

  *   WARNING WHILE EXECUTING UNIT OPERATIONS BLOCK: "B12" (MODEL: "VALVE")     
                                                               (UVA01I.1)       
      ZERO FEED TO THE BLOCK. BLOCK BYPASSED                                    

      ENTHALPY CALCULATION FOR INLET STREAM FB OF BLOCK B1                        TIME =      0.32
      KODE = 2  NTRIAL =   1  T = 298.1500  P =  100000.      V =  0.00000      Q =  0.00000    

      UOS BLOCK B1       MODEL: MAKEUP                                            TIME =      0.32
      NO. TEMP ITER =    5     TEMP =  298.150    
      KODE = 1  NTRIAL =   2  T = 298.1500  P =  100000.      V =  0.00000      Q =  0.00000    
      KODE = 2  NTRIAL =   1  T = 298.1500  P =  100000.      V =  0.00000      Q =  0.00000    

      UOS BLOCK R1       MODEL: RCSTR                                             TIME =      0.32
      KODE = 2   NO. TEMP ITER =    1     TEMP =  423.150    
      KPHASE =    2 KODE =    2 T =  423.150     P = 2.000000E+06 Q =-1.960822E+06
      REACTOR DUTY = -0.195117E+07  VOLUME =   200.000      RES TIME =   29399.8    
      REACTOR T =   423.150      P =  2.000000E+06  V =   0.00000    

  **  ERROR WHILE EXECUTING UNIT OPERATIONS BLOCK: "R1" (MODEL: "RCSTR")        
                                                               (URE03.3)        
      M-BAL LOOP DID NOT CONVERGE IN 50 ITERATIONS. CHECK                       
      STOICHIOMETRY/MOLECULAR WEIGHTS.                                          


  **  ERROR WHILE EXECUTING UNIT OPERATIONS BLOCK: "R1" (MODEL: "RCSTR")        
                                                               (BALMAS.1)       
      BLOCK R1 IS NOT IN MASS BALANCE:                                          
      MASS INLET FLOW = 0.49457940E+01, MASS OUTLET FLOW = 0.49580106E+01       
      RELATIVE DIFFERENCE = 0.24700993E-02                                      

      UOS BLOCK B5       MODEL: PUMP                                              TIME =      0.34
      VOL-FLOW   =  0.6803E-02 , DELTA P    =  0.1000E+07 , PUMP EFF   =  0.5452    
      FLUID PWR  =   6803.     , BRAKE PWR  =  0.1248E+05 , ELEC PWR   =  0.1248E+05

      UOS BLOCK B6       MODEL: VALVE                                             TIME =      0.34
      NO. TEMP ITER =    4     TEMP =  424.292    
      KODE = 1  NTRIAL =   4  T = 424.2921  P = 2.000000E+06  V =  0.00000      Q =  0.00000    
      OUTLET PRES =   0.2000E+07 PRES DROP =   0.1000E+07

      UOS BLOCK B14      MODEL: PUMP                                              TIME =      0.34

  *   WARNING WHILE EXECUTING UNIT OPERATIONS BLOCK: "B14" (MODEL: "PUMP")      
                                                               (UPC01I.1)       
      MIXED SUBSTREAM HAS ZERO FLOW.  BLOCK BYPASSED.                           

      UOS BLOCK B13      MODEL: VALVE                                             TIME =      0.34

  *   WARNING WHILE EXECUTING UNIT OPERATIONS BLOCK: "B13" (MODEL: "VALVE")     
                                                               (UVA01I.1)       
      ZERO FEED TO THE BLOCK. BLOCK BYPASSED                                    

      UOS BLOCK C3       MODEL: RADFRAC                                           TIME =      0.34

  *   WARNING WHILE EXECUTING UNIT OPERATIONS BLOCK: "C3" (MODEL: "RADFRAC")    
                                                               (UDL3II.7060)    
      ZERO FEED - BLOCK BYPASSED.                                               

      UOS BLOCK B17      MODEL: PUMP                                              TIME =      0.34

  *   WARNING WHILE EXECUTING UNIT OPERATIONS BLOCK: "B17" (MODEL: "PUMP")      
                                                               (UPC01I.1)       
      MIXED SUBSTREAM HAS ZERO FLOW.  BLOCK BYPASSED.                           

      UOS BLOCK B19      MODEL: VALVE                                             TIME =      0.34

  *   WARNING WHILE EXECUTING UNIT OPERATIONS BLOCK: "B19" (MODEL: "VALVE")     
                                                               (UVA01I.1)       
      ZERO FEED TO THE BLOCK. BLOCK BYPASSED                                    

      UOS BLOCK R2       MODEL: RCSTR                                             TIME =      0.34
      KODE = 2   NO. TEMP ITER =    1     TEMP =  423.150    
      KPHASE =    2 KODE =    2 T =  423.150     P = 2.000000E+06 Q = -13331.4    
      REACTOR DUTY =  -13331.4      VOLUME =   200.000      RES TIME =   29435.0    
      REACTOR T =   423.150      P =  2.000000E+06  V =   0.00000    

      CONVERGENCE BLOCK $OLVER01  METHOD: WEGSTEIN                                TIME =      0.34
      ITER   1 For Tear Streams: OUT

      --FLASH TEAR STREAM OUT     
      KODE = 1   NO. TEMP ITER =    1     TEMP =  423.150    
      KPHASE =    2 KODE =    1 T =  423.150     P = 2.000000E+06 Q =  0.00000    

  LOOP $OLVER01 ITER    1:   6 VARS NOT CONVERGED, MAX ERR/TOL     0.10000E+07    TIME =      0.35

      UOS BLOCK B8       MODEL: VALVE                                             TIME =      0.35
      NO. TEMP ITER =    4     TEMP =  423.257    
      KODE = 1  NTRIAL =   3  T = 423.2572  P = 1.500000E+06  V =  0.00000      Q =  0.00000    
      OUTLET PRES =   0.1500E+07 PRES DROP =   0.5000E+06

      UOS BLOCK C1       MODEL: RADFRAC                                           TIME =      0.35

       Convergence iterations:
           Iter     Err/Tol
              0     0.11272E+07
              1     0.83787E+06
              2     0.10996E+07
              3     0.99832E+06
              4     0.79288E+06
              5     0.73968E+06
              6     0.36044E+06
              7     0.13048E+06
              8      39185.    
              9      918.14    
             10     0.71841    

      RESULTS FOR MANIPULATED VARIABLES:
      VARIABLE     FINAL VALUE    LOWER BOUND    UPPER BOUND
         1         0.15443E-02    0.27778E-03    0.55556E-02

      UOS BLOCK B9       MODEL: VALVE                                             TIME =      0.41
      KODE = 1  NTRIAL =   7  T = 425.6100  P =  300000.      V = 0.332938      Q =  0.00000    
      OUTLET PRES =   0.3000E+06 PRES DROP =   0.5100E+06

      UOS BLOCK C2       MODEL: RADFRAC                                           TIME =      0.41

       Convergence iterations:
           Iter     Err/Tol
              0     0.28154E+06
              0     0.27404E+06
              1     0.32368E+06
              2     0.38641E+06
              3     0.44669E+06
              4     0.28221E+06
              5     0.29921E+06
              6     0.27885E+06
              7     0.22213E+06
              8     0.13217E+06
              9      56192.    
             10      12510.    
             11      834.66    
             12      1.5026    
             13     0.26869E-05

      RESULTS FOR MANIPULATED VARIABLES:
      VARIABLE     FINAL VALUE    LOWER BOUND    UPPER BOUND
         1          1.2620        0.10000         15.000    
         2         0.94600E+06    0.10000E+06    0.10000E+11

      UOS BLOCK B11      MODEL: PUMP                                              TIME =      0.43
      VOL-FLOW   =  0.2452E-02 , DELTA P    =  0.2500E+07 , PUMP EFF   =  0.4022    
      FLUID PWR  =   6131.     , BRAKE PWR  =  0.1524E+05 , ELEC PWR   =  0.1524E+05

      UOS BLOCK B12      MODEL: VALVE                                             TIME =      0.43
      NO. TEMP ITER =    6     TEMP =  359.593    
      KODE = 1  NTRIAL =   3  T = 359.5927  P = 2.000000E+06  V =  0.00000      Q =  0.00000    
      OUTLET PRES =   0.2000E+07 PRES DROP =   0.6100E+06

      UOS BLOCK B1       MODEL: MAKEUP                                            TIME =      0.43
      NO. TEMP ITER =    4     TEMP =  329.034    
      KODE = 1  NTRIAL =   2  T = 329.0340  P =  100000.      V =  0.00000      Q =  0.00000    
      KODE = 2  NTRIAL =   1  T = 298.1500  P =  100000.      V =  0.00000      Q = 2.041835E-10

      UOS BLOCK R1       MODEL: RCSTR                                             TIME =      0.43
      KODE = 2   NO. TEMP ITER =    1     TEMP =  423.150    
      KPHASE =    2 KODE =    2 T =  423.150     P = 2.000000E+06 Q =-2.105261E+06
      REACTOR DUTY = -0.210526E+07  VOLUME =   200.000      RES TIME =   29346.2    
      REACTOR T =   423.150      P =  2.000000E+06  V =   0.00000    

  **  ERROR WHILE EXECUTING UNIT OPERATIONS BLOCK: "R1" (MODEL: "RCSTR")        
                                                               (URE03.3)        
      M-BAL LOOP DID NOT CONVERGE IN 50 ITERATIONS. CHECK                       
      STOICHIOMETRY/MOLECULAR WEIGHTS.                                          

      UOS BLOCK B5       MODEL: PUMP                                              TIME =      0.43
      VOL-FLOW   =  0.6815E-02 , DELTA P    =  0.1000E+07 , PUMP EFF   =  0.5454    
      FLUID PWR  =   6815.     , BRAKE PWR  =  0.1250E+05 , ELEC PWR   =  0.1250E+05

      UOS BLOCK B6       MODEL: VALVE                                             TIME =      0.43
      NO. TEMP ITER =    4     TEMP =  424.294    
      KODE = 1  NTRIAL =   3  T = 424.2943  P = 2.000000E+06  V =  0.00000      Q =  0.00000    
      OUTLET PRES =   0.2000E+07 PRES DROP =   0.1000E+07

      UOS BLOCK B14      MODEL: PUMP                                              TIME =      0.43
      VOL-FLOW   =  0.3904E-02 , DELTA P    =  0.1000E+07 , PUMP EFF   =  0.4704    
      FLUID PWR  =   3904.     , BRAKE PWR  =   8298.     , ELEC PWR   =   8298.    

      UOS BLOCK B13      MODEL: VALVE                                             TIME =      0.43
      NO. TEMP ITER =    4     TEMP =  423.644    
      KODE = 1  NTRIAL =   2  T = 423.6435  P =  250000.      V =  0.00000      Q =  0.00000    
      OUTLET PRES =   0.2500E+06 PRES DROP =   0.8830E+06

      UOS BLOCK C3       MODEL: RADFRAC                                           TIME =      0.43

       Convergence iterations:
           Iter     Err/Tol
              0     0.29948E+06
              0     0.29946E+06
              1     0.23325E+06
              2     0.16797E+06
              3      78899.    
              4      25605.    
              5      462.38    
              6     0.16675    

      RESULTS FOR MANIPULATED VARIABLES:
      VARIABLE     FINAL VALUE    LOWER BOUND    UPPER BOUND
         1         0.77520        0.10000         5.0000    

      UOS BLOCK B17      MODEL: PUMP                                              TIME =      0.44
      VOL-FLOW   =  0.2416E-03 , DELTA P    =  0.2500E+07 , PUMP EFF   =  0.2957    
      FLUID PWR  =   603.9     , BRAKE PWR  =   2043.     , ELEC PWR   =   2043.    

      UOS BLOCK B19      MODEL: VALVE                                             TIME =      0.44
      NO. TEMP ITER =    6     TEMP =  442.977    
      KODE = 1  NTRIAL =   4  T = 442.9768  P = 2.000000E+06  V =  0.00000      Q =  0.00000    
      OUTLET PRES =   0.2000E+07 PRES DROP =   0.6380E+06

      UOS BLOCK R2       MODEL: RCSTR                                             TIME =      0.44
      KODE = 2   NO. TEMP ITER =    1     TEMP =  423.150    
      KPHASE =    2 KODE =    2 T =  423.150     P = 2.000000E+06 Q = -62240.2    
      REACTOR DUTY =  -62240.2      VOLUME =   200.000      RES TIME =   28467.6    
      REACTOR T =   423.150      P =  2.000000E+06  V =   0.00000    

      CONVERGENCE BLOCK $OLVER01  METHOD: WEGSTEIN                                TIME =      0.44
      ITER   2 For Tear Streams: OUT

      --FLASH TEAR STREAM OUT     
      KODE = 1   NO. TEMP ITER =    4     TEMP =  425.552    
      KPHASE =    2 KODE =    1 T =  425.552     P = 2.000000E+06 Q =  0.00000    

  LOOP $OLVER01 ITER    2:   5 VARS NOT CONVERGED, MAX ERR/TOL      4797.9        TIME =      0.44

      UOS BLOCK B8       MODEL: VALVE                                             TIME =      0.44
      NO. TEMP ITER =    4     TEMP =  425.658    
      KODE = 1  NTRIAL =   3  T = 425.6581  P = 1.500000E+06  V =  0.00000      Q =  0.00000    
      OUTLET PRES =   0.1500E+07 PRES DROP =   0.5000E+06

      UOS BLOCK C1       MODEL: RADFRAC                                           TIME =      0.44

       Convergence iterations:
           Iter     Err/Tol
              0      32173.    
              0      32173.    
              1      1138.9    
              2     0.88549    
              3     0.30974E-06

      RESULTS FOR MANIPULATED VARIABLES:
      VARIABLE     FINAL VALUE    LOWER BOUND    UPPER BOUND
         1         0.15452E-02    0.27778E-03    0.55556E-02

      UOS BLOCK B9       MODEL: VALVE                                             TIME =      0.44
      KODE = 1  NTRIAL =   7  T = 427.2674  P =  300000.      V = 0.334929      Q =  0.00000    
      OUTLET PRES =   0.3000E+06 PRES DROP =   0.5100E+06

      UOS BLOCK C2       MODEL: RADFRAC                                           TIME =      0.44

       Convergence iterations:
           Iter     Err/Tol
              0      26877.    
              0      26877.    
              1      2382.3    
              2      7.7253    
              3     0.69028E-04

      RESULTS FOR MANIPULATED VARIABLES:
      VARIABLE     FINAL VALUE    LOWER BOUND    UPPER BOUND
         1          1.3499        0.10000         15.000    
         2         0.96702E+06    0.10000E+06    0.10000E+11

      UOS BLOCK B11      MODEL: PUMP                                              TIME =      0.45
      VOL-FLOW   =  0.2439E-02 , DELTA P    =  0.2500E+07 , PUMP EFF   =  0.4013    
      FLUID PWR  =   6097.     , BRAKE PWR  =  0.1519E+05 , ELEC PWR   =  0.1519E+05

      UOS BLOCK B12      MODEL: VALVE                                             TIME =      0.45
      NO. TEMP ITER =    6     TEMP =  359.601    
      KODE = 1  NTRIAL =   3  T = 359.6012  P = 2.000000E+06  V =  0.00000      Q =  0.00000    
      OUTLET PRES =   0.2000E+07 PRES DROP =   0.6100E+06

      UOS BLOCK B1       MODEL: MAKEUP                                            TIME =      0.45
      NO. TEMP ITER =    4     TEMP =  328.874    
      KODE = 1  NTRIAL =   2  T = 328.8739  P =  100000.      V =  0.00000      Q =  0.00000    
      KODE = 2  NTRIAL =   1  T = 298.1500  P =  100000.      V =  0.00000      Q =  0.00000    

      UOS BLOCK R1       MODEL: RCSTR                                             TIME =      0.45
      KODE = 2   NO. TEMP ITER =    1     TEMP =  423.150    
      KPHASE =    2 KODE =    2 T =  423.150     P = 2.000000E+06 Q =-2.137945E+06
      REACTOR DUTY = -0.213795E+07  VOLUME =   200.000      RES TIME =   29391.8    
      REACTOR T =   423.150      P =  2.000000E+06  V =   0.00000    

  **  ERROR WHILE EXECUTING UNIT OPERATIONS BLOCK: "R1" (MODEL: "RCSTR")        
                                                               (URE03.3)        
      M-BAL LOOP DID NOT CONVERGE IN 50 ITERATIONS. CHECK                       
      STOICHIOMETRY/MOLECULAR WEIGHTS.                                          

      UOS BLOCK B5       MODEL: PUMP                                              TIME =      0.45
      VOL-FLOW   =  0.6805E-02 , DELTA P    =  0.1000E+07 , PUMP EFF   =  0.5452    
      FLUID PWR  =   6805.     , BRAKE PWR  =  0.1248E+05 , ELEC PWR   =  0.1248E+05

      UOS BLOCK B6       MODEL: VALVE                                             TIME =      0.45
      NO. TEMP ITER =    4     TEMP =  424.294    
      KODE = 1  NTRIAL =   4  T = 424.2940  P = 2.000000E+06  V =  0.00000      Q =  0.00000    
      OUTLET PRES =   0.2000E+07 PRES DROP =   0.1000E+07

      UOS BLOCK B14      MODEL: PUMP                                              TIME =      0.45
      VOL-FLOW   =  0.4213E-02 , DELTA P    =  0.1000E+07 , PUMP EFF   =  0.4811    
      FLUID PWR  =   4213.     , BRAKE PWR  =   8756.     , ELEC PWR   =   8756.    

      UOS BLOCK B13      MODEL: VALVE                                             TIME =      0.45
      NO. TEMP ITER =    4     TEMP =  424.191    
      KODE = 1  NTRIAL =   2  T = 424.1913  P =  250000.      V =  0.00000      Q =  0.00000    
      OUTLET PRES =   0.2500E+06 PRES DROP =   0.8830E+06

      UOS BLOCK C3       MODEL: RADFRAC                                           TIME =      0.45

       Convergence iterations:
           Iter     Err/Tol
              0      74574.    
              0      74574.    
              1     0.15400E+06
              2      81038.    
              3      25234.    
              4      510.00    
              5     0.22962    

      RESULTS FOR MANIPULATED VARIABLES:
      VARIABLE     FINAL VALUE    LOWER BOUND    UPPER BOUND
         1          1.0599        0.10000         5.0000    

      UOS BLOCK B17      MODEL: PUMP                                              TIME =      0.46
      VOL-FLOW   =  0.2858E-03 , DELTA P    =  0.2500E+07 , PUMP EFF   =  0.2957    
      FLUID PWR  =   714.6     , BRAKE PWR  =   2417.     , ELEC PWR   =   2417.    

      UOS BLOCK B19      MODEL: VALVE                                             TIME =      0.46
      NO. TEMP ITER =    6     TEMP =  460.440    
      KODE = 1  NTRIAL =   4  T = 460.4395  P = 2.000000E+06  V =  0.00000      Q =  0.00000    
      OUTLET PRES =   0.2000E+07 PRES DROP =   0.6380E+06

      UOS BLOCK R2       MODEL: RCSTR                                             TIME =      0.46
      KODE = 2   NO. TEMP ITER =    1     TEMP =  423.150    
      KPHASE =    2 KODE =    2 T =  423.150     P = 2.000000E+06 Q = -38352.0    
      REACTOR DUTY =  -38352.0      VOLUME =   200.000      RES TIME =   28309.6    
      REACTOR T =   423.150      P =  2.000000E+06  V =   0.00000    

      CONVERGENCE BLOCK $OLVER01  METHOD: WEGSTEIN                                TIME =      0.46
      ITER   3 For Tear Streams: OUT

      --FLASH TEAR STREAM OUT     
      KODE = 1   NO. TEMP ITER =    4     TEMP =  426.019    
      KPHASE =    2 KODE =    1 T =  426.019     P = 2.000000E+06 Q =  0.00000    

  LOOP $OLVER01 ITER    3:   6 VARS NOT CONVERGED, MAX ERR/TOL     -8256.1        TIME =      0.46

      UOS BLOCK B8       MODEL: VALVE                                             TIME =      0.46
      NO. TEMP ITER =    4     TEMP =  426.125    
      KODE = 1  NTRIAL =   3  T = 426.1248  P = 1.500000E+06  V =  0.00000      Q =  0.00000    
      OUTLET PRES =   0.1500E+07 PRES DROP =   0.5000E+06

      UOS BLOCK C1       MODEL: RADFRAC                                           TIME =      0.46

       Convergence iterations:
           Iter     Err/Tol
              0      31225.    
              0      31225.    
              1      396.83    
              2     0.15382    
              3     0.18247E-07

      RESULTS FOR MANIPULATED VARIABLES:
      VARIABLE     FINAL VALUE    LOWER BOUND    UPPER BOUND
         1         0.15444E-02    0.27778E-03    0.55556E-02

      UOS BLOCK B9       MODEL: VALVE                                             TIME =      0.47
      KODE = 1  NTRIAL =   7  T = 428.7421  P =  300000.      V = 0.336700      Q =  0.00000    
      OUTLET PRES =   0.3000E+06 PRES DROP =   0.5100E+06

      UOS BLOCK C2       MODEL: RADFRAC                                           TIME =      0.47

       Convergence iterations:
           Iter     Err/Tol
              0      27290.    
              0      27290.    
              1      642.46    
              2     0.18871    
              3     0.21038E-07

      RESULTS FOR MANIPULATED VARIABLES:
      VARIABLE     FINAL VALUE    LOWER BOUND    UPPER BOUND
         1          1.4068        0.10000         15.000    
         2         0.95297E+06    0.10000E+06    0.10000E+11

      UOS BLOCK B11      MODEL: PUMP                                              TIME =      0.47
      VOL-FLOW   =  0.2370E-02 , DELTA P    =  0.2500E+07 , PUMP EFF   =  0.3970    
      FLUID PWR  =   5925.     , BRAKE PWR  =  0.1493E+05 , ELEC PWR   =  0.1493E+05

      UOS BLOCK B12      MODEL: VALVE                                             TIME =      0.47
      NO. TEMP ITER =    6     TEMP =  359.646    
      KODE = 1  NTRIAL =   3  T = 359.6459  P = 2.000000E+06  V =  0.00000      Q =  0.00000    
      OUTLET PRES =   0.2000E+07 PRES DROP =   0.6100E+06

      UOS BLOCK B1       MODEL: MAKEUP                                            TIME =      0.47
      NO. TEMP ITER =    4     TEMP =  328.057    
      KODE = 1  NTRIAL =   2  T = 328.0568  P =  100000.      V =  0.00000      Q =  0.00000    
      KODE = 2  NTRIAL =   1  T = 298.1500  P =  100000.      V =  0.00000      Q = 2.105319E-10

      UOS BLOCK R1       MODEL: RCSTR                                             TIME =      0.47
      KODE = 2   NO. TEMP ITER =    1     TEMP =  423.150    
      KPHASE =    2 KODE =    2 T =  423.150     P = 2.000000E+06 Q =-2.131984E+06
      REACTOR DUTY = -0.213198E+07  VOLUME =   200.000      RES TIME =   29394.4    
      REACTOR T =   423.150      P =  2.000000E+06  V =   0.00000    

      UOS BLOCK B5       MODEL: PUMP                                              TIME =      0.47
      VOL-FLOW   =  0.6804E-02 , DELTA P    =  0.1000E+07 , PUMP EFF   =  0.5452    
      FLUID PWR  =   6804.     , BRAKE PWR  =  0.1248E+05 , ELEC PWR   =  0.1248E+05

      UOS BLOCK B6       MODEL: VALVE                                             TIME =      0.47
      NO. TEMP ITER =    4     TEMP =  424.294    
      KODE = 1  NTRIAL =   4  T = 424.2940  P = 2.000000E+06  V =  0.00000      Q =  0.00000    
      OUTLET PRES =   0.2000E+07 PRES DROP =   0.1000E+07

      UOS BLOCK B14      MODEL: PUMP                                              TIME =      0.48
      VOL-FLOW   =  0.4346E-02 , DELTA P    =  0.1000E+07 , PUMP EFF   =  0.4854    
      FLUID PWR  =   4346.     , BRAKE PWR  =   8952.     , ELEC PWR   =   8952.    

      UOS BLOCK B13      MODEL: VALVE                                             TIME =      0.48
      NO. TEMP ITER =    4     TEMP =  425.146    
      KODE = 1  NTRIAL =   2  T = 425.1458  P =  250000.      V =  0.00000      Q =  0.00000    
      OUTLET PRES =   0.2500E+06 PRES DROP =   0.8830E+06

      UOS BLOCK C3       MODEL: RADFRAC                                           TIME =      0.48

       Convergence iterations:
           Iter     Err/Tol
              0      72288.    
              0      72288.    
              1      92266.    
              2     0.12738E+06
              3     0.12506E+06
              4     0.12108E+06
              5     0.12480E+06
              6     0.12872E+06
              7     0.15659E+06
              8     0.16031E+06
              9     0.15958E+06
             10     0.15983E+06
             11     0.15946E+06
             12     0.22273E+06
             13     0.23421E+06
             14     0.22317E+06
             15     0.21061E+06
             16     0.19468E+06
             17     0.23947E+06
             18     0.24650E+06
             19     0.23928E+06
             20     0.23010E+06
             21     0.21615E+06
             22     0.25297E+06
             23     0.25874E+06
             24     0.25350E+06
             25     0.24685E+06
             26     0.23267E+06
             27     0.26567E+06
             28     0.27039E+06
             29     0.26667E+06
             30     0.26082E+06
             31     0.24558E+06
             32     0.27686E+06
             33     0.28122E+06
             34     0.27796E+06
             35     0.27246E+06
             36     0.35707E+06
             37     0.37054E+06
             38     0.37527E+06
             39     0.35721E+06
             40     0.33384E+06
             41     0.36521E+06
             42     0.35842E+06
             43     0.36439E+06
             44     0.34907E+06
             45     0.33329E+06
             46     0.37795E+06
             47     0.36639E+06
             48     0.36157E+06
             49     0.35994E+06
             50     0.35557E+06
             51     0.66686E+06
             52     0.60356E+06
             53     0.55500E+06
             54     0.51387E+06
             55     0.47739E+06
             56     0.33241E+07
             57     0.16382E+08
             58     0.15456E+08
             59     0.14586E+08
             60     0.90125E+07
             61     0.15815E+07
             62     0.14322E+07
             63     0.88531E+06
             64     0.20400E+06
             65     0.85496E+06
             66     0.11373E+07
             67     0.86668E+06
             68     0.85647E+06
             69     0.78885E+06
             70     0.56243E+06
             71     0.63734E+07
             72     0.43649E+07
             73     0.34512E+07
             74     0.41210E+07
             75     0.16550E+07
             76     0.77297E+07
             77     0.72912E+07
             78     0.68658E+07
             79     0.86243E+07
             80     0.70599E+07
             81     0.80068E+06
             82     0.73141E+06
             83     0.38692E+06
             84     0.39043E+06
             85     0.38562E+06
             86     0.84413E+06
             87     0.84563E+06
             88     0.10572E+07
             89     0.12954E+07
             90     0.10277E+07
             91     0.71393E+06
             92     0.70249E+06
             93     0.41016E+06
             94     0.35988E+06
             95     0.40622E+06
             96     0.70262E+06
             97     0.70830E+06
             98     0.70569E+06
             99     0.70534E+06
            100     0.70552E+06
            101     0.79240E+06
            102     0.78988E+06
            103     0.79132E+06
            104     0.45026E+06
            105     0.44913E+06
            106     0.73732E+06
            107     0.68762E+06
            108     0.69853E+06
            109     0.69857E+06
            110     0.69856E+06
            111     0.76275E+06
            112     0.76282E+06
            113     0.76283E+06
            114     0.76278E+06
            115     0.76279E+06
            116     0.77004E+06
            117     0.45186E+06
            118     0.49481E+06
            119     0.49255E+06
            120     0.46336E+06
            121     0.42851E+06
            122     0.26644E+06
            123     0.24318E+06
            124     0.19685E+06
            125     0.27603E+06
            126     0.80273E+06
            127     0.57445E+06
            128     0.55361E+06
            129     0.55268E+06
            130     0.50787E+06
            131     0.75246E+06
            132     0.75706E+06
            133     0.75492E+06
            134     0.75552E+06
            135     0.74673E+06
            136     0.71184E+06
            137     0.64986E+06
            138     0.53317E+06
            139     0.32934E+06
            140     0.19196E+06
            141     0.40478E+06
            142     0.23774E+06
            143     0.13081E+06
            144      72802.    
            145      40667.    
            146     0.39430E+06
            147     0.22662E+06
            148     0.13442E+06
            149      73084.    
            150      40325.    
            151     0.37238E+06
            152     0.21238E+06
            153     0.12605E+06
            154      68730.    
            155      37991.    
            156     0.38395E+06
            157     0.22246E+06
            158     0.13308E+06
            159      72727.    
            160      40268.    
            161     0.50948E+06
            162     0.13364E+06
            163      66931.    
            164      34286.    
            165      22237.    
            166     0.38221E+06
            167     0.22271E+06
            168     0.13162E+06
            169     0.10009E+06
            170      84655.    
            171     0.38891E+06
            172     0.24483E+06
            173     0.16512E+06
            174     0.11847E+06
            175      90814.    
            176     0.41391E+06
            177     0.23119E+06
            178     0.14571E+06
            179     0.10304E+06
            180      83600.    
            181     0.41367E+06
            182     0.27658E+06
            183     0.23860E+06
            184     0.22593E+06
            185     0.22017E+06
            186     0.16486E+07
            187     0.16059E+07
            188     0.15839E+07
            189     0.15723E+07
            190     0.15665E+07
            191     0.17128E+07
            192     0.20287E+07
            193     0.27708E+07
            194     0.35159E+07
            195     0.35296E+07
            196     0.15011E+07
            197     0.14187E+07
            198     0.12857E+07
            199     0.13060E+07
            200     0.12857E+07

  *** SEVERE ERROR WHILE EXECUTING UNIT OPERATIONS BLOCK: "C3" (MODEL:          
      "RADFRAC")                                               (UDL03K.3)       
      MATERIAL AND ENERGY BALANCES FAILED TO CONVERGE: CHECK COL-SPECS          
      OR SUPPLY BETTER TEMPERATURE AND COMPOSITION ESTIMATES.                   

  *** SEVERE ERROR WHILE EXECUTING UNIT OPERATIONS BLOCK: "C3" (MODEL:          
      "RADFRAC")                                               (UDL03K.4)       
      THE FOLLOWING STAGES DRIED UP:                                            
        2    3    4    5                                                        
      A LIMIT OF  0.10000E-04 * SUM OF FEEDS WAS IMPOSED ON THE FLOW RATES.     

  **  ERROR WHILE EXECUTING UNIT OPERATIONS BLOCK: "C3" (MODEL: "RADFRAC")      
                                                               (UDL03K.7)       
      FINAL VALUE OF ONE OR MORE MANIPULATED VARIABLE LIES OUTSIDE              
      USER-SPECIFIED BOUNDS.  BOUNDS FOR MANIPULATED VARIABLES ARE              
      NOT USED FOR DSMETH=SIMULT.                                               

      RESULTS FOR MANIPULATED VARIABLES:
      VARIABLE     FINAL VALUE    LOWER BOUND    UPPER BOUND
         1         0.59126E-04    0.10000         5.0000    


  **  ERROR WHILE EXECUTING UNIT OPERATIONS BLOCK: "C3" (MODEL: "RADFRAC")      
                                                               (BALMAS.1)       
      BLOCK C3 IS NOT IN MASS BALANCE:                                          
      MASS INLET FLOW = 0.32406626E+01, MASS OUTLET FLOW = 0.96516833E+01       
      RELATIVE DIFFERENCE = 0.19783055E+01                                      

      UOS BLOCK B17      MODEL: PUMP                                              TIME =      0.92
      VOL-FLOW   =  0.3116E-03 , DELTA P    =  0.2500E+07 , PUMP EFF   =  0.2957    
      FLUID PWR  =   778.9     , BRAKE PWR  =   2635.     , ELEC PWR   =   2635.    

      UOS BLOCK B19      MODEL: VALVE                                             TIME =      0.92
      NO. TEMP ITER =    6     TEMP =  475.809    
      KODE = 1  NTRIAL =   2  T = 475.8094  P = 2.000000E+06  V =  0.00000      Q =  0.00000    
      OUTLET PRES =   0.2000E+07 PRES DROP =   0.6380E+06

      UOS BLOCK R2       MODEL: RCSTR                                             TIME =      0.92
      KODE = 2   NO. TEMP ITER =    1     TEMP =  423.150    
      KPHASE =    2 KODE =    2 T =  423.150     P = 2.000000E+06 Q = -47982.2    
      REACTOR DUTY =  -47982.2      VOLUME =   200.000      RES TIME =   28232.9    
      REACTOR T =   423.150      P =  2.000000E+06  V =   0.00000    

      CONVERGENCE BLOCK $OLVER01  METHOD: WEGSTEIN                                TIME =      0.92
      ITER   4 For Tear Streams: OUT

      --FLASH TEAR STREAM OUT     
      KODE = 1   NO. TEMP ITER =    4     TEMP =  422.675    
      KPHASE =    2 KODE =    1 T =  422.675     P = 2.000000E+06 Q =  0.00000    

  LOOP $OLVER01 ITER    4:   6 VARS NOT CONVERGED, MAX ERR/TOL     -2841.5        TIME =      0.92

      UOS BLOCK B8       MODEL: VALVE                                             TIME =      0.92
      NO. TEMP ITER =    4     TEMP =  422.785    
      KODE = 1  NTRIAL =   3  T = 422.7847  P = 1.500000E+06  V =  0.00000      Q =  0.00000    
      OUTLET PRES =   0.1500E+07 PRES DROP =   0.5000E+06

      UOS BLOCK C1       MODEL: RADFRAC                                           TIME =      0.92

       Convergence iterations:
           Iter     Err/Tol
              0      22136.    
              0      22136.    
              1      432.54    
              2     0.20198    
              3     0.12565E-07

      RESULTS FOR MANIPULATED VARIABLES:
      VARIABLE     FINAL VALUE    LOWER BOUND    UPPER BOUND
         1         0.15444E-02    0.27778E-03    0.55556E-02

      UOS BLOCK B9       MODEL: VALVE                                             TIME =      0.92
      KODE = 1  NTRIAL =   7  T = 427.5655  P =  300000.      V = 0.335303      Q =  0.00000    
      OUTLET PRES =   0.3000E+06 PRES DROP =   0.5100E+06

      UOS BLOCK C2       MODEL: RADFRAC                                           TIME =      0.92

       Convergence iterations:
           Iter     Err/Tol
              0      21661.    
              0      21661.    
              1      374.34    
              2     0.67550E-01
              3     0.10523E-07

      RESULTS FOR MANIPULATED VARIABLES:
      VARIABLE     FINAL VALUE    LOWER BOUND    UPPER BOUND
         1          1.3593        0.10000         15.000    
         2         0.96191E+06    0.10000E+06    0.10000E+11

      UOS BLOCK B11      MODEL: PUMP                                              TIME =      0.93
      VOL-FLOW   =  0.2421E-02 , DELTA P    =  0.2500E+07 , PUMP EFF   =  0.4002    
      FLUID PWR  =   6053.     , BRAKE PWR  =  0.1512E+05 , ELEC PWR   =  0.1512E+05

      UOS BLOCK B12      MODEL: VALVE                                             TIME =      0.93
      NO. TEMP ITER =    6     TEMP =  359.612    
      KODE = 1  NTRIAL =   3  T = 359.6124  P = 2.000000E+06  V =  0.00000      Q =  0.00000    
      OUTLET PRES =   0.2000E+07 PRES DROP =   0.6100E+06

      UOS BLOCK B1       MODEL: MAKEUP                                            TIME =      0.93
      NO. TEMP ITER =    4     TEMP =  328.665    
      KODE = 1  NTRIAL =   2  T = 328.6646  P =  100000.      V =  0.00000      Q =  0.00000    
      KODE = 2  NTRIAL =   1  T = 298.1500  P =  100000.      V =  0.00000      Q =  0.00000    

      UOS BLOCK R1       MODEL: RCSTR                                             TIME =      0.93
      KODE = 2   NO. TEMP ITER =    1     TEMP =  423.150    
      KPHASE =    2 KODE =    2 T =  423.150     P = 2.000000E+06 Q =-2.136418E+06
      REACTOR DUTY = -0.213642E+07  VOLUME =   200.000      RES TIME =   29393.5    
      REACTOR T =   423.150      P =  2.000000E+06  V =   0.00000    

      UOS BLOCK B5       MODEL: PUMP                                              TIME =      0.93
      VOL-FLOW   =  0.6804E-02 , DELTA P    =  0.1000E+07 , PUMP EFF   =  0.5452    
      FLUID PWR  =   6804.     , BRAKE PWR  =  0.1248E+05 , ELEC PWR   =  0.1248E+05

      UOS BLOCK B6       MODEL: VALVE                                             TIME =      0.93
      NO. TEMP ITER =    4     TEMP =  424.294    
      KODE = 1  NTRIAL =   4  T = 424.2940  P = 2.000000E+06  V =  0.00000      Q =  0.00000    
      OUTLET PRES =   0.2000E+07 PRES DROP =   0.1000E+07

      UOS BLOCK B14      MODEL: PUMP                                              TIME =      0.93
      VOL-FLOW   =  0.4230E-02 , DELTA P    =  0.1000E+07 , PUMP EFF   =  0.4817    
      FLUID PWR  =   4230.     , BRAKE PWR  =   8782.     , ELEC PWR   =   8782.    

      UOS BLOCK B13      MODEL: VALVE                                             TIME =      0.93
      NO. TEMP ITER =    4     TEMP =  424.423    
      KODE = 1  NTRIAL =   2  T = 424.4228  P =  250000.      V =  0.00000      Q =  0.00000    
      OUTLET PRES =   0.2500E+06 PRES DROP =   0.8830E+06

      UOS BLOCK C3       MODEL: RADFRAC                                           TIME =      0.93

  *   WARNING WHILE EXECUTING UNIT OPERATIONS BLOCK: "C3" (MODEL: "RADFRAC")    
                                                               (UDL03D.11)      
      PREVIOUS SOLUTION VALUE OF MANIPULATED VARIABLE FOR "VARYNO= 2"           
      LIES OUTSIDE CURRENT LIMITS.  MANIPULATED VARIABLE IS RESET TO ITS        
      INITIAL VALUE.                                                            

       Convergence iterations:
           Iter     Err/Tol
              0     0.10761E+07
              1     0.10111E+07
              2     0.92613E+06
              3     0.42373E+06
              4     0.24030E+06
              5     0.10648E+06
              6      15455.    
              7      128.38    
              8      27908.    
              9      447.55    
             10      2.7122    
             11     0.20127E-05

      RESULTS FOR MANIPULATED VARIABLES:
      VARIABLE     FINAL VALUE    LOWER BOUND    UPPER BOUND
         1          1.1579        0.10000         5.0000    

      UOS BLOCK B17      MODEL: PUMP                                              TIME =      0.94
      VOL-FLOW   =  0.2979E-03 , DELTA P    =  0.2500E+07 , PUMP EFF   =  0.2957    
      FLUID PWR  =   744.8     , BRAKE PWR  =   2519.     , ELEC PWR   =   2519.    

      UOS BLOCK B19      MODEL: VALVE                                             TIME =      0.94
      NO. TEMP ITER =    6     TEMP =  469.449    
      KODE = 1  NTRIAL =   2  T = 469.4489  P = 2.000000E+06  V =  0.00000      Q =  0.00000    
      OUTLET PRES =   0.2000E+07 PRES DROP =   0.6380E+06

      UOS BLOCK R2       MODEL: RCSTR                                             TIME =      0.94
      KODE = 2   NO. TEMP ITER =    1     TEMP =  423.150    
      KPHASE =    2 KODE =    2 T =  423.150     P = 2.000000E+06 Q = -43618.0    
      REACTOR DUTY =  -43618.0      VOLUME =   200.000      RES TIME =   28275.5    
      REACTOR T =   423.150      P =  2.000000E+06  V =   0.00000    

      CONVERGENCE BLOCK $OLVER01  METHOD: WEGSTEIN                                TIME =      0.95
      ITER   5 For Tear Streams: OUT

      --FLASH TEAR STREAM OUT     
      KODE = 1   NO. TEMP ITER =    4     TEMP =  423.253    
      KPHASE =    2 KODE =    1 T =  423.253     P = 2.000000E+06 Q =  0.00000    

  LOOP $OLVER01 ITER    5:   6 VARS NOT CONVERGED, MAX ERR/TOL      250.70        TIME =      0.95

      UOS BLOCK B8       MODEL: VALVE                                             TIME =      0.95
      NO. TEMP ITER =    4     TEMP =  423.362    
      KODE = 1  NTRIAL =   3  T = 423.3618  P = 1.500000E+06  V =  0.00000      Q =  0.00000    
      OUTLET PRES =   0.1500E+07 PRES DROP =   0.5000E+06

      UOS BLOCK C1       MODEL: RADFRAC                                           TIME =      0.95

       Convergence iterations:
           Iter     Err/Tol
              0      4036.5    
              0      4036.5    
              1      45.947    
              2     0.43313E-03

      RESULTS FOR MANIPULATED VARIABLES:
      VARIABLE     FINAL VALUE    LOWER BOUND    UPPER BOUND
         1         0.15444E-02    0.27778E-03    0.55556E-02

      UOS BLOCK B9       MODEL: VALVE                                             TIME =      0.95
      KODE = 1  NTRIAL =   7  T = 427.6579  P =  300000.      V = 0.335413      Q =  0.00000    
      OUTLET PRES =   0.3000E+06 PRES DROP =   0.5100E+06

      UOS BLOCK C2       MODEL: RADFRAC                                           TIME =      0.95

       Convergence iterations:
           Iter     Err/Tol
              0      1607.8    
              0      1607.7    
              1      7.2525    
              2     0.62982E-04

      RESULTS FOR MANIPULATED VARIABLES:
      VARIABLE     FINAL VALUE    LOWER BOUND    UPPER BOUND
         1          1.3638        0.10000         15.000    
         2         0.95895E+06    0.10000E+06    0.10000E+11

      UOS BLOCK B11      MODEL: PUMP                                              TIME =      0.95
      VOL-FLOW   =  0.2411E-02 , DELTA P    =  0.2500E+07 , PUMP EFF   =  0.3996    
      FLUID PWR  =   6027.     , BRAKE PWR  =  0.1508E+05 , ELEC PWR   =  0.1508E+05

      UOS BLOCK B12      MODEL: VALVE                                             TIME =      0.95
      NO. TEMP ITER =    6     TEMP =  359.619    
      KODE = 1  NTRIAL =   3  T = 359.6192  P = 2.000000E+06  V =  0.00000      Q =  0.00000    
      OUTLET PRES =   0.2000E+07 PRES DROP =   0.6100E+06

      UOS BLOCK B1       MODEL: MAKEUP                                            TIME =      0.95
      NO. TEMP ITER =    4     TEMP =  328.540    
      KODE = 1  NTRIAL =   2  T = 328.5397  P =  100000.      V =  0.00000      Q =  0.00000    
      KODE = 2  NTRIAL =   1  T = 298.1500  P =  100000.      V =  0.00000      Q =  0.00000    

      UOS BLOCK R1       MODEL: RCSTR                                             TIME =      0.95
      KODE = 2   NO. TEMP ITER =    1     TEMP =  423.150    
      KPHASE =    2 KODE =    2 T =  423.150     P = 2.000000E+06 Q =-2.135507E+06
      REACTOR DUTY = -0.213551E+07  VOLUME =   200.000      RES TIME =   29393.7    
      REACTOR T =   423.150      P =  2.000000E+06  V =   0.00000    

      UOS BLOCK B5       MODEL: PUMP                                              TIME =      0.96
      VOL-FLOW   =  0.6804E-02 , DELTA P    =  0.1000E+07 , PUMP EFF   =  0.5452    
      FLUID PWR  =   6804.     , BRAKE PWR  =  0.1248E+05 , ELEC PWR   =  0.1248E+05

      UOS BLOCK B6       MODEL: VALVE                                             TIME =      0.96
      NO. TEMP ITER =    4     TEMP =  424.294    
      KODE = 1  NTRIAL =   4  T = 424.2940  P = 2.000000E+06  V =  0.00000      Q =  0.00000    
      OUTLET PRES =   0.2000E+07 PRES DROP =   0.1000E+07

      UOS BLOCK B14      MODEL: PUMP                                              TIME =      0.96
      VOL-FLOW   =  0.4229E-02 , DELTA P    =  0.1000E+07 , PUMP EFF   =  0.4817    
      FLUID PWR  =   4229.     , BRAKE PWR  =   8780.     , ELEC PWR   =   8780.    

      UOS BLOCK B13      MODEL: VALVE                                             TIME =      0.96
      NO. TEMP ITER =    4     TEMP =  424.467    
      KODE = 1  NTRIAL =   2  T = 424.4668  P =  250000.      V =  0.00000      Q =  0.00000    
      OUTLET PRES =   0.2500E+06 PRES DROP =   0.8830E+06

      UOS BLOCK C3       MODEL: RADFRAC                                           TIME =      0.96

       Convergence iterations:
           Iter     Err/Tol
              0     0.10243E+06
              0     0.10243E+06
              1      10750.    
              2      280.40    
              3     0.48119E-01

      RESULTS FOR MANIPULATED VARIABLES:
      VARIABLE     FINAL VALUE    LOWER BOUND    UPPER BOUND
         1          1.1757        0.10000         5.0000    

      UOS BLOCK B17      MODEL: PUMP                                              TIME =      0.96
      VOL-FLOW   =  0.3000E-03 , DELTA P    =  0.2500E+07 , PUMP EFF   =  0.2957    
      FLUID PWR  =   749.9     , BRAKE PWR  =   2537.     , ELEC PWR   =   2537.    

      UOS BLOCK B19      MODEL: VALVE                                             TIME =      0.96
      NO. TEMP ITER =    6     TEMP =  471.308    
      KODE = 1  NTRIAL =   2  T = 471.3080  P = 2.000000E+06  V =  0.00000      Q =  0.00000    
      OUTLET PRES =   0.2000E+07 PRES DROP =   0.6380E+06

      UOS BLOCK R2       MODEL: RCSTR                                             TIME =      0.96
      KODE = 2   NO. TEMP ITER =    1     TEMP =  423.150    
      KPHASE =    2 KODE =    2 T =  423.150     P = 2.000000E+06 Q = -44708.8    
      REACTOR DUTY =  -44708.8      VOLUME =   200.000      RES TIME =   28270.2    
      REACTOR T =   423.150      P =  2.000000E+06  V =   0.00000    

      CONVERGENCE BLOCK $OLVER01  METHOD: WEGSTEIN                                TIME =      0.96
      ITER   6 For Tear Streams: OUT

      --FLASH TEAR STREAM OUT     
      KODE = 1   NO. TEMP ITER =    4     TEMP =  423.215    
      KPHASE =    2 KODE =    1 T =  423.215     P = 2.000000E+06 Q =  0.00000    

  LOOP $OLVER01 ITER    6:   6 VARS NOT CONVERGED, MAX ERR/TOL      80.698        TIME =      0.96

      UOS BLOCK B8       MODEL: VALVE                                             TIME =      0.96
      NO. TEMP ITER =    4     TEMP =  423.323    
      KODE = 1  NTRIAL =   3  T = 423.3234  P = 1.500000E+06  V =  0.00000      Q =  0.00000    
      OUTLET PRES =   0.1500E+07 PRES DROP =   0.5000E+06

      UOS BLOCK C1       MODEL: RADFRAC                                           TIME =      0.96

       Convergence iterations:
           Iter     Err/Tol
              0      2532.0    
              0      2532.0    
              1      3.3334    
              2     0.57609E-05

      RESULTS FOR MANIPULATED VARIABLES:
      VARIABLE     FINAL VALUE    LOWER BOUND    UPPER BOUND
         1         0.15444E-02    0.27778E-03    0.55556E-02

      UOS BLOCK B9       MODEL: VALVE                                             TIME =      0.97
      KODE = 1  NTRIAL =   7  T = 427.6893  P =  300000.      V = 0.335451      Q =  0.00000    
      OUTLET PRES =   0.3000E+06 PRES DROP =   0.5100E+06

      UOS BLOCK C2       MODEL: RADFRAC                                           TIME =      0.97

       Convergence iterations:
           Iter     Err/Tol
              0      583.91    
              0      583.90    
              1     0.36523    
              2     0.12848E-06

      RESULTS FOR MANIPULATED VARIABLES:
      VARIABLE     FINAL VALUE    LOWER BOUND    UPPER BOUND
         1          1.3650        0.10000         15.000    
         2         0.95906E+06    0.10000E+06    0.10000E+11

      UOS BLOCK B11      MODEL: PUMP                                              TIME =      0.97
      VOL-FLOW   =  0.2410E-02 , DELTA P    =  0.2500E+07 , PUMP EFF   =  0.3995    
      FLUID PWR  =   6025.     , BRAKE PWR  =  0.1508E+05 , ELEC PWR   =  0.1508E+05

      UOS BLOCK B12      MODEL: VALVE                                             TIME =      0.97
      NO. TEMP ITER =    6     TEMP =  359.620    
      KODE = 1  NTRIAL =   3  T = 359.6195  P = 2.000000E+06  V =  0.00000      Q =  0.00000    
      OUTLET PRES =   0.2000E+07 PRES DROP =   0.6100E+06

      UOS BLOCK B1       MODEL: MAKEUP                                            TIME =      0.97
      NO. TEMP ITER =    4     TEMP =  328.534    
      KODE = 1  NTRIAL =   2  T = 328.5341  P =  100000.      V =  0.00000      Q =  0.00000    
      KODE = 2  NTRIAL =   1  T = 298.1500  P =  100000.      V =  0.00000      Q =  0.00000    

      UOS BLOCK R1       MODEL: RCSTR                                             TIME =      0.97
      KODE = 2   NO. TEMP ITER =    1     TEMP =  423.150    
      KPHASE =    2 KODE =    2 T =  423.150     P = 2.000000E+06 Q =-2.135465E+06
      REACTOR DUTY = -0.213547E+07  VOLUME =   200.000      RES TIME =   29393.7    
      REACTOR T =   423.150      P =  2.000000E+06  V =   0.00000    

      UOS BLOCK B5       MODEL: PUMP                                              TIME =      0.97
      VOL-FLOW   =  0.6804E-02 , DELTA P    =  0.1000E+07 , PUMP EFF   =  0.5452    
      FLUID PWR  =   6804.     , BRAKE PWR  =  0.1248E+05 , ELEC PWR   =  0.1248E+05

      UOS BLOCK B6       MODEL: VALVE                                             TIME =      0.97
      NO. TEMP ITER =    4     TEMP =  424.294    
      KODE = 1  NTRIAL =   4  T = 424.2940  P = 2.000000E+06  V =  0.00000      Q =  0.00000    
      OUTLET PRES =   0.2000E+07 PRES DROP =   0.1000E+07

      UOS BLOCK B14      MODEL: PUMP                                              TIME =      0.97
      VOL-FLOW   =  0.4234E-02 , DELTA P    =  0.1000E+07 , PUMP EFF   =  0.4818    
      FLUID PWR  =   4234.     , BRAKE PWR  =   8787.     , ELEC PWR   =   8787.    

      UOS BLOCK B13      MODEL: VALVE                                             TIME =      0.97
      NO. TEMP ITER =    4     TEMP =  424.486    
      KODE = 1  NTRIAL =   2  T = 424.4862  P =  250000.      V =  0.00000      Q =  0.00000    
      OUTLET PRES =   0.2500E+06 PRES DROP =   0.8830E+06

      UOS BLOCK C3       MODEL: RADFRAC                                           TIME =      0.97

       Convergence iterations:
           Iter     Err/Tol
              0     0.10786E+06
              0     0.10786E+06
              1      5426.3    
              2      47.683    
              3     0.11270E-02

      RESULTS FOR MANIPULATED VARIABLES:
      VARIABLE     FINAL VALUE    LOWER BOUND    UPPER BOUND
         1          1.1836        0.10000         5.0000    

      UOS BLOCK B17      MODEL: PUMP                                              TIME =      0.98
      VOL-FLOW   =  0.3013E-03 , DELTA P    =  0.2500E+07 , PUMP EFF   =  0.2957    
      FLUID PWR  =   753.2     , BRAKE PWR  =   2547.     , ELEC PWR   =   2547.    

      UOS BLOCK B19      MODEL: VALVE                                             TIME =      0.98
      NO. TEMP ITER =    6     TEMP =  472.163    
      KODE = 1  NTRIAL =   2  T = 472.1632  P = 2.000000E+06  V =  0.00000      Q =  0.00000    
      OUTLET PRES =   0.2000E+07 PRES DROP =   0.6380E+06

      UOS BLOCK R2       MODEL: RCSTR                                             TIME =      0.98
      KODE = 2   NO. TEMP ITER =    1     TEMP =  423.150    
      KPHASE =    2 KODE =    2 T =  423.150     P = 2.000000E+06 Q = -45243.0    
      REACTOR DUTY =  -45243.0      VOLUME =   200.000      RES TIME =   28266.4    
      REACTOR T =   423.150      P =  2.000000E+06  V =   0.00000    

      CONVERGENCE BLOCK $OLVER01  METHOD: WEGSTEIN                                TIME =      0.98
      ITER   7 For Tear Streams: OUT

      --FLASH TEAR STREAM OUT     
      KODE = 1   NO. TEMP ITER =    4     TEMP =  423.086    
      KPHASE =    2 KODE =    1 T =  423.086     P = 2.000000E+06 Q =  0.00000    

  LOOP $OLVER01 ITER    7:   4 VARS NOT CONVERGED, MAX ERR/TOL     -6.8427        TIME =      0.98

      UOS BLOCK B8       MODEL: VALVE                                             TIME =      0.98
      NO. TEMP ITER =    4     TEMP =  423.195    
      KODE = 1  NTRIAL =   3  T = 423.1953  P = 1.500000E+06  V =  0.00000      Q =  0.00000    
      OUTLET PRES =   0.1500E+07 PRES DROP =   0.5000E+06

      UOS BLOCK C1       MODEL: RADFRAC                                           TIME =      0.98

       Convergence iterations:
           Iter     Err/Tol
              0      2304.0    
              0      2304.0    
              1      8.1082    
              2     0.35614E-04

      RESULTS FOR MANIPULATED VARIABLES:
      VARIABLE     FINAL VALUE    LOWER BOUND    UPPER BOUND
         1         0.15444E-02    0.27778E-03    0.55556E-02

      UOS BLOCK B9       MODEL: VALVE                                             TIME =      0.98
      KODE = 1  NTRIAL =   7  T = 427.7150  P =  300000.      V = 0.335479      Q =  0.00000    
      OUTLET PRES =   0.3000E+06 PRES DROP =   0.5100E+06

      UOS BLOCK C2       MODEL: RADFRAC                                           TIME =      0.98

       Convergence iterations:
           Iter     Err/Tol
              0      463.10    
              0      463.09    
              1     0.94331    
              2     0.78759E-06

      RESULTS FOR MANIPULATED VARIABLES:
      VARIABLE     FINAL VALUE    LOWER BOUND    UPPER BOUND
         1          1.3670        0.10000         15.000    
         2         0.95929E+06    0.10000E+06    0.10000E+11

      UOS BLOCK B11      MODEL: PUMP                                              TIME =      0.98
      VOL-FLOW   =  0.2409E-02 , DELTA P    =  0.2500E+07 , PUMP EFF   =  0.3995    
      FLUID PWR  =   6023.     , BRAKE PWR  =  0.1508E+05 , ELEC PWR   =  0.1508E+05

      UOS BLOCK B12      MODEL: VALVE                                             TIME =      0.98
      NO. TEMP ITER =    6     TEMP =  359.620    
      KODE = 1  NTRIAL =   3  T = 359.6202  P = 2.000000E+06  V =  0.00000      Q =  0.00000    
      OUTLET PRES =   0.2000E+07 PRES DROP =   0.6100E+06

      UOS BLOCK B1       MODEL: MAKEUP                                            TIME =      0.98
      NO. TEMP ITER =    4     TEMP =  328.521    
      KODE = 1  NTRIAL =   2  T = 328.5215  P =  100000.      V =  0.00000      Q =  0.00000    
      KODE = 2  NTRIAL =   1  T = 298.1500  P =  100000.      V =  0.00000      Q =  0.00000    

      UOS BLOCK R1       MODEL: RCSTR                                             TIME =      0.98
      KODE = 2   NO. TEMP ITER =    1     TEMP =  423.150    
      KPHASE =    2 KODE =    2 T =  423.150     P = 2.000000E+06 Q =-2.135373E+06
      REACTOR DUTY = -0.213537E+07  VOLUME =   200.000      RES TIME =   29393.7    
      REACTOR T =   423.150      P =  2.000000E+06  V =   0.00000    

      UOS BLOCK B5       MODEL: PUMP                                              TIME =      0.99
      VOL-FLOW   =  0.6804E-02 , DELTA P    =  0.1000E+07 , PUMP EFF   =  0.5452    
      FLUID PWR  =   6804.     , BRAKE PWR  =  0.1248E+05 , ELEC PWR   =  0.1248E+05

      UOS BLOCK B6       MODEL: VALVE                                             TIME =      0.99
      NO. TEMP ITER =    4     TEMP =  424.294    
      KODE = 1  NTRIAL =   4  T = 424.2940  P = 2.000000E+06  V =  0.00000      Q =  0.00000    
      OUTLET PRES =   0.2000E+07 PRES DROP =   0.1000E+07

      UOS BLOCK B14      MODEL: PUMP                                              TIME =      0.99
      VOL-FLOW   =  0.4238E-02 , DELTA P    =  0.1000E+07 , PUMP EFF   =  0.4820    
      FLUID PWR  =   4238.     , BRAKE PWR  =   8794.     , ELEC PWR   =   8794.    

      UOS BLOCK B13      MODEL: VALVE                                             TIME =      0.99
      NO. TEMP ITER =    4     TEMP =  424.484    
      KODE = 1  NTRIAL =   2  T = 424.4844  P =  250000.      V =  0.00000      Q =  0.00000    
      OUTLET PRES =   0.2500E+06 PRES DROP =   0.8830E+06

      UOS BLOCK C3       MODEL: RADFRAC                                           TIME =      0.99

       Convergence iterations:
           Iter     Err/Tol
              0     0.11024E+06
              0     0.11024E+06
              1      462.39    
              2     0.51377E-01

      RESULTS FOR MANIPULATED VARIABLES:
      VARIABLE     FINAL VALUE    LOWER BOUND    UPPER BOUND
         1          1.1830        0.10000         5.0000    

      UOS BLOCK B17      MODEL: PUMP                                              TIME =      0.99
      VOL-FLOW   =  0.3015E-03 , DELTA P    =  0.2500E+07 , PUMP EFF   =  0.2957    
      FLUID PWR  =   753.8     , BRAKE PWR  =   2550.     , ELEC PWR   =   2550.    

      UOS BLOCK B19      MODEL: VALVE                                             TIME =      0.99
      NO. TEMP ITER =    6     TEMP =  472.099    
      KODE = 1  NTRIAL =   2  T = 472.0987  P = 2.000000E+06  V =  0.00000      Q =  0.00000    
      OUTLET PRES =   0.2000E+07 PRES DROP =   0.6380E+06

      UOS BLOCK R2       MODEL: RCSTR                                             TIME =      0.99
      KODE = 2   NO. TEMP ITER =    1     TEMP =  423.150    
      KPHASE =    2 KODE =    2 T =  423.150     P = 2.000000E+06 Q = -45230.9    
      REACTOR DUTY =  -45230.9      VOLUME =   200.000      RES TIME =   28265.4    
      REACTOR T =   423.150      P =  2.000000E+06  V =   0.00000    

      CONVERGENCE BLOCK $OLVER01  METHOD: WEGSTEIN                                TIME =      0.99
      ITER   8 For Tear Streams: OUT

      --FLASH TEAR STREAM OUT     
      KODE = 1   NO. TEMP ITER =    4     TEMP =  423.150    
      KPHASE =    2 KODE =    1 T =  423.150     P = 2.000000E+06 Q =  0.00000    

  LOOP $OLVER01 ITER    8:   4 VARS NOT CONVERGED, MAX ERR/TOL     -8.4686        TIME =      0.99

      UOS BLOCK B8       MODEL: VALVE                                             TIME =      0.99
      NO. TEMP ITER =    4     TEMP =  423.259    
      KODE = 1  NTRIAL =   3  T = 423.2588  P = 1.500000E+06  V =  0.00000      Q =  0.00000    
      OUTLET PRES =   0.1500E+07 PRES DROP =   0.5000E+06

      UOS BLOCK C1       MODEL: RADFRAC                                           TIME =      0.99

       Convergence iterations:
           Iter     Err/Tol
              0      1902.7    
              0      1902.7    
              1      4.0517    
              2     0.81010E-05

      RESULTS FOR MANIPULATED VARIABLES:
      VARIABLE     FINAL VALUE    LOWER BOUND    UPPER BOUND
         1         0.15444E-02    0.27778E-03    0.55556E-02

      UOS BLOCK B9       MODEL: VALVE                                             TIME =      0.99
      KODE = 1  NTRIAL =   7  T = 427.7008  P =  300000.      V = 0.335464      Q =  0.00000    
      OUTLET PRES =   0.3000E+06 PRES DROP =   0.5100E+06

      UOS BLOCK C2       MODEL: RADFRAC                                           TIME =      0.99

       Convergence iterations:
           Iter     Err/Tol
              0      264.52    
              0      264.49    
              1     0.52846    
              2     0.35181E-06

      RESULTS FOR MANIPULATED VARIABLES:
      VARIABLE     FINAL VALUE    LOWER BOUND    UPPER BOUND
         1          1.3659        0.10000         15.000    
         2         0.95891E+06    0.10000E+06    0.10000E+11

      UOS BLOCK B11      MODEL: PUMP                                              TIME =      1.00
      VOL-FLOW   =  0.2409E-02 , DELTA P    =  0.2500E+07 , PUMP EFF   =  0.3995    
      FLUID PWR  =   6023.     , BRAKE PWR  =  0.1508E+05 , ELEC PWR   =  0.1508E+05

      UOS BLOCK B12      MODEL: VALVE                                             TIME =      1.00
      NO. TEMP ITER =    6     TEMP =  359.620    
      KODE = 1  NTRIAL =   3  T = 359.6202  P = 2.000000E+06  V =  0.00000      Q =  0.00000    
      OUTLET PRES =   0.2000E+07 PRES DROP =   0.6100E+06

      UOS BLOCK B1       MODEL: MAKEUP                                            TIME =      1.00
      NO. TEMP ITER =    4     TEMP =  328.522    
      KODE = 1  NTRIAL =   2  T = 328.5215  P =  100000.      V =  0.00000      Q =  0.00000    
      KODE = 2  NTRIAL =   1  T = 298.1500  P =  100000.      V =  0.00000      Q =-2.075147E-10

      UOS BLOCK R1       MODEL: RCSTR                                             TIME =      1.00
      KODE = 2   NO. TEMP ITER =    1     TEMP =  423.150    
      KPHASE =    2 KODE =    2 T =  423.150     P = 2.000000E+06 Q =-2.135374E+06
[...]
         SPEC-ACTIVE=YES SPEC-DESCRIP="Mole purity, 0.9879, PRODUCT"
     SPEC 2 MOLE-FRAC 0.0004 COMPS=BENZENE STREAMS=C2B  &
         SPEC-ACTIVE=YES SPEC-DESCRIP="Mole purity, 0.0004, PRODUCT"
     VARY 1 MOLE-RR 0.1 20. VARY-ACTIVE=YES
     VARY 2 QN 10. 10000000. VARY-ACTIVE=YES
     REPORT HYDRAULIC
     INTERNALS CS-1 STAGE1=2 STAGE2=23 P-UPDATE=NO  &
         TRAYTYPE=SIEVE NPASS=1 SYSFAC=1.000000000  &
         OVER-DESIGN=1.000000000 WEIR-HT=50.80000000 <mm>  &
         DC-CLEAR=38.10000000 <mm> DC-WTOP-SIDE=186.7686077 <mm>  &
         DC-WBOT-SIDE=186.7686077 <mm> HOLE-DIAM=12.70000000 <mm>  &
         HOLE-AREA=.1000000000 FLOOD-METH=GLITSCH6  &
         DECK-THICK=0.134 <IN> PCT-FLOOD-FA=80.00000000  &
         AER-PARAM-M=1.000000000 MAX-DC-LOAD=GLITSCH  &
         MAX-ACC-DP=.0250000000 MAX-PCT-DCB=100.0000000  &
         MAX-PCT-ENT=10.00000000 MIN-WEIR-LD=1.24194040E-3  &
         MAX-WEIR-LD=.0326033908 MIN-PCT-DCA=.1000000000
     TRAY-SIZE 1 2 23 SIEVE

 CHANGES WERE MADE TO BLOCK        C3       04/11/2025   17:06:51:99 
 BLOCK C3 RADFRAC
     SUBOBJECTS INTERNALS = CS-1
     PARAM NSTAGE=29 ALGORITHM=NEWTON INIT-OPTION=STANDARD  &
         HYDRAULIC=YES MAXOL=200 DAMPING=MILD
     PARAM2 STATIC-DP=YES
     COL-CONFIG CONDENSER=TOTAL CA-CONFIG=INT-1
     FEEDS 16 6 ON-STAGE
     PRODUCTS C3D 1 L / C3B 29 L
     P-SPEC 1 1.1
     COL-SPECS D:F=0.945227124 DP-STAGE=0.01 MOLE-RR=0.9
     SPEC 1 MOLE-FRAC 0.0193 COMPS=EB STREAMS=C3B  &
         SPEC-ACTIVE=YES SPEC-DESCRIP="Mole purity, 0.0193, PRODUCT"
     SPEC 2 MOLE-FRAC 0.999 COMPS=EB STREAMS=C3D  &
         SPEC-ACTIVE=YES SPEC-DESCRIP="Mole purity, 0.999, PRODUCT"
     VARY 1 D:F 0.1 0.995 VARY-ACTIVE=YES
     VARY 2 MOLE-RR 0.1 20. VARY-ACTIVE=YES
     REPORT HYDRAULIC
     INTERNALS CS-1 STAGE1=2 STAGE2=28 P-UPDATE=NO  &
         TRAYTYPE=SIEVE NPASS=1 SYSFAC=1.000000000  &
         OVER-DESIGN=1.000000000 WEIR-HT=50.80000000 <mm>  &
         DC-CLEAR=38.10000000 <mm> DC-WTOP-SIDE=217.1789683 <mm>  &
         DC-WBOT-SIDE=217.1789683 <mm> HOLE-DIAM=12.70000000 <mm>  &
         HOLE-AREA=.1000000000 FLOOD-METH=GLITSCH6  &
         DECK-THICK=0.134 <IN> PCT-FLOOD-FA=80.00000000  &
         AER-PARAM-M=1.000000000 MAX-DC-LOAD=GLITSCH  &
         MAX-ACC-DP=.0250000000 MAX-PCT-DCB=100.0000000  &
         MAX-PCT-ENT=10.00000000 MIN-WEIR-LD=1.24194040E-3  &
         MAX-WEIR-LD=.0326033908 MIN-PCT-DCA=.1000000000
     TRAY-SIZE 1 2 28 SIEVE

 CHANGES WERE MADE TO BLOCK        B8       04/11/2025   17:06:51:99 
 BLOCK B8 VALVE
     PARAM P-OUT=8.04

 CHANGES WERE MADE TO BLOCK        B9       04/11/2025   17:06:51:99 
 BLOCK B9 VALVE
     PARAM P-OUT=1.17

 CHANGES WERE MADE TO BLOCK        B13      04/11/2025   17:06:51:99 
 BLOCK B13 VALVE
     PARAM P-OUT=1.15

 PDF updated                                                                      TIME =   6935.75
 THIS COPY OF ASPEN PLUS LICENSED TO INDIAN INSTITUTE OF TECH        


Calculations begin                                                              time   6935.78


      UOS BLOCK B13      MODEL: VALVE                                             TIME =   6935.78
      KODE = 1  NTRIAL =   5  T = 417.4598  P =  115000.      V = 4.845122E-02  Q =  0.00000    
      OUTLET PRES =   0.1150E+06 PRES DROP =   0.1018E+07

      UOS BLOCK C3       MODEL: RADFRAC                                           TIME =   6935.78

       Convergence iterations:
           Iter     Err/Tol
              0     0.11223E+06
              0      79359.    
              1     0.19216E-03

      RESULTS FOR MANIPULATED VARIABLES:
      VARIABLE     FINAL VALUE    LOWER BOUND    UPPER BOUND
         1         0.94741        0.10000        0.99500    
         2          1.1864        0.10000         20.000    

      UOS BLOCK B17      MODEL: PUMP                                              TIME =   6935.79
      VOL-FLOW   =  0.2926E-03 , DELTA P    =  0.2500E+07 , PUMP EFF   =  0.2957    
      FLUID PWR  =   731.4     , BRAKE PWR  =   2474.     , ELEC PWR   =   2474.    

      UOS BLOCK B19      MODEL: VALVE                                             TIME =   6935.79
      NO. TEMP ITER =    6     TEMP =  475.642    
      KODE = 1  NTRIAL =   2  T = 475.6424  P = 2.000000E+06  V =  0.00000      Q =  0.00000    
      OUTLET PRES =   0.2000E+07 PRES DROP =   0.6380E+06

      UOS BLOCK R2       MODEL: RCSTR                                             TIME =   6935.79
      KODE = 2   NO. TEMP ITER =    1     TEMP =  423.150    
      KPHASE =    2 KODE =    2 T =  423.150     P = 2.000000E+06 Q = -46210.3    
      REACTOR DUTY =  -46210.3      VOLUME =   200.000      RES TIME =   28309.0    
      REACTOR T =   423.150      P =  2.000000E+06  V =   0.00000    

      UOS BLOCK B8       MODEL: VALVE                                             TIME =   6935.79
      KODE = 1  NTRIAL =   9  T = 421.7587  P =  804000.      V = 2.235949E-02  Q =  0.00000    
      OUTLET PRES =   0.8040E+06 PRES DROP =   0.1196E+07

      UOS BLOCK C1       MODEL: RADFRAC                                           TIME =   6935.79

       Convergence iterations:
           Iter     Err/Tol
              0      2033.9    
              0      2033.9    
              1     0.35608E-04

      RESULTS FOR MANIPULATED VARIABLES:
      VARIABLE     FINAL VALUE    LOWER BOUND    UPPER BOUND
         1         0.15444E-02    0.27778E-03    0.55556E-02

      UOS BLOCK B9       MODEL: VALVE                                             TIME =   6935.79
      KODE = 1  NTRIAL =   5  T = 392.7865  P =  117000.      V = 0.533064      Q =  0.00000    
      OUTLET PRES =   0.1170E+06 PRES DROP =   0.6930E+06

      UOS BLOCK C2       MODEL: RADFRAC                                           TIME =   6935.79

       Convergence iterations:
           Iter     Err/Tol
              0     0.24247    
              0     0.24243    
              1     0.20013E-06

      RESULTS FOR MANIPULATED VARIABLES:
      VARIABLE     FINAL VALUE    LOWER BOUND    UPPER BOUND
         1          1.3542        0.10000         20.000    
         2         0.95090E+06     10000.        0.10000E+11

      UOS BLOCK B11      MODEL: PUMP                                              TIME =   6935.79
      VOL-FLOW   =  0.2408E-02 , DELTA P    =  0.2500E+07 , PUMP EFF   =  0.3994    
      FLUID PWR  =   6021.     , BRAKE PWR  =  0.1507E+05 , ELEC PWR   =  0.1507E+05

      UOS BLOCK B12      MODEL: VALVE                                             TIME =   6935.79
      NO. TEMP ITER =    6     TEMP =  359.682    
      KODE = 1  NTRIAL =   3  T = 359.6824  P = 2.000000E+06  V =  0.00000      Q =  0.00000    
      OUTLET PRES =   0.2000E+07 PRES DROP =   0.6100E+06

      CALCULATOR BLOCK C-1                                                        TIME =   6935.79

      UOS BLOCK B3       MODEL: PUMP                                              TIME =   6935.79
      VOL-FLOW   =  0.2495E-02 , DELTA P    =  0.3000E+07 , PUMP EFF   =  0.4048    
      FLUID PWR  =   7484.     , BRAKE PWR  =  0.1849E+05 , ELEC PWR   =  0.1849E+05

      CONVERGENCE BLOCK $OLVER02  METHOD: WEGSTEIN                                TIME =   6935.79
      ITER   0 For Tear Streams: C2B       RECYCLE   S1

      UOS BLOCK B14      MODEL: PUMP                                              TIME =   6935.79
      VOL-FLOW   =  0.4225E-02 , DELTA P    =  0.1000E+07 , PUMP EFF   =  0.4815    
      FLUID PWR  =   4225.     , BRAKE PWR  =   8775.     , ELEC PWR   =   8775.    

      UOS BLOCK B13      MODEL: VALVE                                             TIME =   6935.79
      KODE = 1  NTRIAL =   5  T = 417.4598  P =  115000.      V = 4.845122E-02  Q =  0.00000    
      OUTLET PRES =   0.1150E+06 PRES DROP =   0.1018E+07

      UOS BLOCK C3       MODEL: RADFRAC                                           TIME =   6935.79

       Convergence iterations:
           Iter     Err/Tol
              0     0.11223E+06
              0      79359.    
              1     0.52634E-02

      RESULTS FOR MANIPULATED VARIABLES:
      VARIABLE     FINAL VALUE    LOWER BOUND    UPPER BOUND
         1         0.94741        0.10000        0.99500    
         2          1.1864        0.10000         20.000    

      UOS BLOCK B17      MODEL: PUMP                                              TIME =   6935.80
      VOL-FLOW   =  0.2926E-03 , DELTA P    =  0.2500E+07 , PUMP EFF   =  0.2957    
      FLUID PWR  =   731.4     , BRAKE PWR  =   2474.     , ELEC PWR   =   2474.    

      UOS BLOCK B19      MODEL: VALVE                                             TIME =   6935.80
      NO. TEMP ITER =    6     TEMP =  475.642    
      KODE = 1  NTRIAL =   2  T = 475.6424  P = 2.000000E+06  V =  0.00000      Q =  0.00000    
      OUTLET PRES =   0.2000E+07 PRES DROP =   0.6380E+06

      UOS BLOCK B10      MODEL: VALVE                                             TIME =   6935.80
      NO. TEMP ITER =    6     TEMP =  302.405    
      KODE = 1  NTRIAL =   2  T = 302.4054  P = 2.000000E+06  V =  0.00000      Q =  0.00000    
      OUTLET PRES =   0.2000E+07 PRES DROP =   0.1100E+07

      UOS BLOCK B2       MODEL: MIXER                                             TIME =   6935.80
      NO. TEMP ITER =    6     TEMP =  330.339    
      KODE = 1  NTRIAL =   3  T = 330.3393  P = 2.000000E+06  V =  0.00000      Q =  0.00000    

      UOS BLOCK R1       MODEL: RCSTR                                             TIME =   6935.80
      KODE = 2   NO. TEMP ITER =    1     TEMP =  423.150    
      KPHASE =    2 KODE =    2 T =  423.150     P = 2.000000E+06 Q =-2.154128E+06
      REACTOR DUTY = -0.215413E+07  VOLUME =   200.000      RES TIME =   29399.0    
      REACTOR T =   423.150      P =  2.000000E+06  V =   0.00000    

      UOS BLOCK B5       MODEL: PUMP                                              TIME =   6935.80
      VOL-FLOW   =  0.6803E-02 , DELTA P    =  0.1000E+07 , PUMP EFF   =  0.5452    
      FLUID PWR  =   6803.     , BRAKE PWR  =  0.1248E+05 , ELEC PWR   =  0.1248E+05

      UOS BLOCK B6       MODEL: VALVE                                             TIME =   6935.80
      NO. TEMP ITER =    4     TEMP =  424.294    
      KODE = 1  NTRIAL =   4  T = 424.2939  P = 2.000000E+06  V =  0.00000      Q =  0.00000    
      OUTLET PRES =   0.2000E+07 PRES DROP =   0.1000E+07

      UOS BLOCK R2       MODEL: RCSTR                                             TIME =   6935.80
      KODE = 2   NO. TEMP ITER =    1     TEMP =  423.150    
      KPHASE =    2 KODE =    2 T =  423.150     P = 2.000000E+06 Q = -46210.3    
      REACTOR DUTY =  -46210.3      VOLUME =   200.000      RES TIME =   28309.0    
      REACTOR T =   423.150      P =  2.000000E+06  V =   0.00000    

      UOS BLOCK B8       MODEL: VALVE                                             TIME =   6935.80
      KODE = 1  NTRIAL =   9  T = 421.7587  P =  804000.      V = 2.235949E-02  Q =  0.00000    
      OUTLET PRES =   0.8040E+06 PRES DROP =   0.1196E+07

      UOS BLOCK C1       MODEL: RADFRAC                                           TIME =   6935.80

       Convergence iterations:
           Iter     Err/Tol
              0      2033.9    
              0      2033.9    
              1     0.14112E-03

      RESULTS FOR MANIPULATED VARIABLES:
      VARIABLE     FINAL VALUE    LOWER BOUND    UPPER BOUND
         1         0.15444E-02    0.27778E-03    0.55556E-02

      UOS BLOCK B9       MODEL: VALVE                                             TIME =   6935.80
      KODE = 1  NTRIAL =   5  T = 392.7865  P =  117000.      V = 0.533064      Q =  0.00000    
      OUTLET PRES =   0.1170E+06 PRES DROP =   0.6930E+06

      UOS BLOCK C2       MODEL: RADFRAC                                           TIME =   6935.80

       Convergence iterations:
           Iter     Err/Tol
              0     0.72327E-02
              0     0.72327E-02

      RESULTS FOR MANIPULATED VARIABLES:
      VARIABLE     FINAL VALUE    LOWER BOUND    UPPER BOUND
         1          1.3542        0.10000         20.000    
         2         0.95090E+06     10000.        0.10000E+11

      UOS BLOCK B11      MODEL: PUMP                                              TIME =   6935.81
      VOL-FLOW   =  0.2408E-02 , DELTA P    =  0.2500E+07 , PUMP EFF   =  0.3994    
      FLUID PWR  =   6021.     , BRAKE PWR  =  0.1507E+05 , ELEC PWR   =  0.1507E+05

      UOS BLOCK B12      MODEL: VALVE                                             TIME =   6935.81
      NO. TEMP ITER =    6     TEMP =  359.682    
      KODE = 1  NTRIAL =   3  T = 359.6824  P = 2.000000E+06  V =  0.00000      Q =  0.00000    
      OUTLET PRES =   0.2000E+07 PRES DROP =   0.6100E+06

      CALCULATOR BLOCK C-1                                                        TIME =   6935.81

      UOS BLOCK B3       MODEL: PUMP                                              TIME =   6935.81
      VOL-FLOW   =  0.2495E-02 , DELTA P    =  0.3000E+07 , PUMP EFF   =  0.4048    
      FLUID PWR  =   7484.     , BRAKE PWR  =  0.1849E+05 , ELEC PWR   =  0.1849E+05

      CONVERGENCE BLOCK $OLVER02  METHOD: WEGSTEIN                                TIME =   6935.81
      ITER   1 For Tear Streams: C2B       RECYCLE   S1

  LOOP $OLVER02 ITER    1:     *** CONVERGED *** , MAX ERR/TOL     0.31906E-04    TIME =   6935.81

      UOS BLOCK B7       MODEL: VALVE                                             TIME =   6935.81
      NO. TEMP ITER =    4     TEMP =  315.712    
      KODE = 1  NTRIAL =   4  T = 315.7122  P =  300000.      V =  1.00000      Q =  0.00000    
      OUTLET PRES =   0.3000E+06 PRES DROP =   0.5000E+06

      UOS BLOCK B16      MODEL: PUMP                                              TIME =   6935.81
      VOL-FLOW   =  0.3897E-02 , DELTA P    =  0.1000E+07 , PUMP EFF   =  0.4702    
      FLUID PWR  =   3897.     , BRAKE PWR  =   8288.     , ELEC PWR   =   8288.    

      UOS BLOCK B18      MODEL: VALVE                                             TIME =   6935.81
      NO. TEMP ITER =    4     TEMP =  415.302    
      KODE = 1  NTRIAL =   2  T = 415.3021  P =  310000.      V =  0.00000      Q =  0.00000    
      OUTLET PRES =   0.3100E+06 PRES DROP =   0.8000E+06

      GENERATING RESULTS FOR UOS BLOCK B5       MODEL: PUMP                       TIME =   6935.81
      KODE = 5  NTRIAL =   5  T = 423.1500  P = 1.406419E+06  V =  0.00000      Q = -1382.46    
      VOL-FLOW   =  0.6803E-02 , DELTA P    =  0.1000E+07 , PUMP EFF   =  0.5452    
      FLUID PWR  =   6803.     , BRAKE PWR  =  0.1248E+05 , ELEC PWR   =  0.1248E+05
      NPSH AVAIL =   815.5    

      GENERATING RESULTS FOR UOS BLOCK B11      MODEL: PUMP                       TIME =   6935.81
      KODE = 5  NTRIAL =   4  T = 356.2164  P =  110000.      V =  0.00000      Q = 3.709881E-10
      VOL-FLOW   =  0.2408E-02 , DELTA P    =  0.2500E+07 , PUMP EFF   =  0.3994    
      FLUID PWR  =   6021.     , BRAKE PWR  =  0.1507E+05 , ELEC PWR   =  0.1507E+05
      NPSH AVAIL =   0.000    

      GENERATING RESULTS FOR UOS BLOCK B14      MODEL: PUMP                       TIME =   6935.81
      KODE = 5  NTRIAL =   3  T = 423.2897  P =  133000.      V =  0.00000      Q = 1.264519E-04
      VOL-FLOW   =  0.4225E-02 , DELTA P    =  0.1000E+07 , PUMP EFF   =  0.4815    
      FLUID PWR  =   4225.     , BRAKE PWR  =   8775.     , ELEC PWR   =   8775.    
      NPSH AVAIL =   0.000    

      GENERATING RESULTS FOR UOS BLOCK B17      MODEL: PUMP                       TIME =   6935.81
      KODE = 5  NTRIAL =   3  T = 471.0737  P =  138000.      V =  0.00000      Q = 1.006697E-05
      VOL-FLOW   =  0.2926E-03 , DELTA P    =  0.2500E+07 , PUMP EFF   =  0.2957    
      FLUID PWR  =   731.4     , BRAKE PWR  =   2474.     , ELEC PWR   =   2474.    
      NPSH AVAIL =   0.000    

      GENERATING RESULTS FOR UOS BLOCK B16      MODEL: PUMP                       TIME =   6935.81
      KODE = 5  NTRIAL =   3  T = 414.0859  P =  110000.      V =  0.00000      Q = 2.929126E-05
      VOL-FLOW   =  0.3897E-02 , DELTA P    =  0.1000E+07 , PUMP EFF   =  0.4702    
      FLUID PWR  =   3897.     , BRAKE PWR  =   8288.     , ELEC PWR   =   8288.    
      NPSH AVAIL =   0.000    

      GENERATING RESULTS FOR UOS BLOCK B3       MODEL: PUMP                       TIME =   6935.81
      KODE = 5  NTRIAL =   3  T = 298.1500  P =  15180.1      V =  0.00000      Q = -132.040    
      VOL-FLOW   =  0.2495E-02 , DELTA P    =  0.3000E+07 , PUMP EFF   =  0.4048    
      FLUID PWR  =   7484.     , BRAKE PWR  =  0.1849E+05 , ELEC PWR   =  0.1849E+05
      NPSH AVAIL =   97.26    

      CHECKING PHASE EQUILIBRIUM RESULTS                                          TIME =   6935.81

      CHECKING PHASE EQUILIBRIUM RESULTS                                          TIME =   6935.81

 Report Writer entered                                                            Time =   6955.49

 Results generated                                                                Time =   6955.54

 Report Writer entered                                                            Time =   7007.26

 Results generated                                                                Time =   7007.32

RUN SAVED



 *** SUMMARY OF ERRORS ***

                  PHYSICAL
                  PROPERTY  SYSTEM  SIMULATION
 TERMINAL ERRORS      0        0         0
   SEVERE ERRORS      0        0        21
          ERRORS      0        0        19
        WARNINGS      0        0        14

 Report Writer entered                                                            Time =   7029.72

 Results generated                                                                Time =   7029.78

 Report Writer entered                                                            Time =   7030.68

 Results generated                                                                Time =   7030.73

RUN SAVED



 *** SUMMARY OF ERRORS ***

                  PHYSICAL
                  PROPERTY  SYSTEM  SIMULATION
 TERMINAL ERRORS      0        0         0
   SEVERE ERRORS      0        0        21
          ERRORS      0        0        19
        WARNINGS      0        0        14

 Report Writer entered                                                            Time =   7081.70

 Results generated                                                                Time =   7081.76

 Report Writer entered                                                            Time =   7082.67

 Results generated                                                                Time =   7082.72

RUN SAVED



 *** SUMMARY OF ERRORS ***

                  PHYSICAL
                  PROPERTY  SYSTEM  SIMULATION
 TERMINAL ERRORS      0        0         0
   SEVERE ERRORS      0        0        21
          ERRORS      0        0        19
        WARNINGS      0        0        14

 Report Writer entered                                                            Time =   7106.31

 Results generated                                                                Time =   7106.36

 Report Writer entered                                                            Time =   7107.22

 Results generated                                                                Time =   7107.27

RUN SAVED



 *** SUMMARY OF ERRORS ***

                  PHYSICAL
                  PROPERTY  SYSTEM  SIMULATION
 TERMINAL ERRORS      0        0         0
   SEVERE ERRORS      0        0        21
          ERRORS      0        0        19
        WARNINGS      0        0        14
